                                  MODFLOW-2005     
      U.S. GEOLOGICAL SURVEY MODULAR FINITE-DIFFERENCE GROUND-WATER FLOW MODEL
                            VERSION 1.11.00 8/8/2013

 LIST FILE: tutorial2.list
                         UNIT    2

 OPENING tutorial2.dis
 FILE TYPE:DIS   UNIT   11   STATUS:OLD    
 FORMAT:FORMATTED              ACCESS:SEQUENTIAL          

 OPENING tutorial2.bas
 FILE TYPE:BAS6   UNIT   13   STATUS:OLD    
 FORMAT:FORMATTED              ACCESS:SEQUENTIAL          

 OPENING tutorial2.lpf
 FILE TYPE:LPF   UNIT   15   STATUS:OLD    
 FORMAT:FORMATTED              ACCESS:SEQUENTIAL          

 OPENING tutorial2.pcg
 FILE TYPE:PCG   UNIT   27   STATUS:OLD    
 FORMAT:FORMATTED              ACCESS:SEQUENTIAL          

 OPENING tutorial2.ghb
 FILE TYPE:GHB   UNIT   23   STATUS:OLD    
 FORMAT:FORMATTED              ACCESS:SEQUENTIAL          

 OPENING tutorial2.wel
 FILE TYPE:WEL   UNIT   20   STATUS:OLD    
 FORMAT:FORMATTED              ACCESS:SEQUENTIAL          

 OPENING tutorial2.oc
 FILE TYPE:OC   UNIT   14   STATUS:OLD    
 FORMAT:FORMATTED              ACCESS:SEQUENTIAL          

 OPENING tutorial2.hds
 FILE TYPE:DATA(BINARY)   UNIT   51   STATUS:REPLACE
 FORMAT:UNFORMATTED            ACCESS:STREAM              

 OPENING tutorial2.ddn
 FILE TYPE:DATA(BINARY)   UNIT   52   STATUS:REPLACE
 FORMAT:UNFORMATTED            ACCESS:STREAM              

 OPENING tutorial2.cbc
 FILE TYPE:DATA(BINARY)   UNIT   53   STATUS:REPLACE
 FORMAT:UNFORMATTED            ACCESS:STREAM              

 BAS -- BASIC PACKAGE, VERSION 7, 5/2/2005 INPUT READ FROM UNIT   13

 MODFLOW was compiled using mixed precision
 Precision of REAL variables:           6
 Precision of DOUBLE PRECISION variables:          15

 DISCRETIZATION INPUT DATA READ FROM UNIT   11
 # Discretization file for MODFLOW, generated by Flopy.
    1 LAYERS        10 ROWS        10 COLUMNS
    3 STRESS PERIOD(S) IN SIMULATION
 MODEL TIME UNIT IS DAYS
 MODEL LENGTH UNIT IS METERS
  Confining bed flag for each layer:
   0

                     DELR =   100.000    

                     DELC =   100.000    

 TOP ELEVATION OF LAYER 1 =   0.00000    

   MODEL LAYER BOTTOM EL. =  -50.0000     FOR LAYER   1


 STRESS PERIOD     LENGTH       TIME STEPS     MULTIPLIER FOR DELT    SS FLAG
 ----------------------------------------------------------------------------
        1         1.000000          1                    1.000         SS
        2         100.0000        100                    1.000         TR
        3         100.0000        100                    1.000         TR

 COMBINED STEADY-STATE AND TRANSIENT SIMULATION




 # Basic package file for MODFLOW, generated by Flopy.                           
 THE FREE FORMAT OPTION HAS BEEN SELECTED



                     BOUNDARY ARRAY FOR LAYER   1
 READING ON UNIT   13 WITH FORMAT: (10I10)             

 AQUIFER HEAD WILL BE SET TO  -999.99     AT ALL NO-FLOW NODES (IBOUND=0).



                       INITIAL HEAD FOR LAYER   1
 READING ON UNIT   13 WITH FORMAT: (10G15.6)           
 # Output control package file for MODFLOW, generated by Flopy.

 OUTPUT CONTROL IS SPECIFIED ONLY AT TIME STEPS FOR WHICH OUTPUT IS DESIRED
 COMPACT CELL-BY-CELL BUDGET FILES WILL BE WRITTEN
 HEAD PRINT FORMAT CODE IS   0    DRAWDOWN PRINT FORMAT CODE IS   0
 HEADS WILL BE SAVED ON UNIT   51    DRAWDOWNS WILL BE SAVED ON UNIT   52

 LPF -- LAYER-PROPERTY FLOW PACKAGE, VERSION 7, 5/2/2005
         INPUT READ FROM UNIT   15
 # LPF for MODFLOW, generated by Flopy.
 CELL-BY-CELL FLOWS WILL BE SAVED ON UNIT   53
 HEAD AT CELLS THAT CONVERT TO DRY= -1.00000E+30
 No named parameters

   LAYER FLAGS:
 LAYER       LAYTYP        LAYAVG         CHANI        LAYVKA        LAYWET
 ---------------------------------------------------------------------------
    1             1             0     1.000E+00             0             0

   INTERPRETATION OF LAYER FLAGS:
                        INTERBLOCK     HORIZONTAL    DATA IN
         LAYER TYPE   TRANSMISSIVITY   ANISOTROPY   ARRAY VKA   WETTABILITY
 LAYER      (LAYTYP)      (LAYAVG)       (CHANI)      (LAYVKA)      (LAYWET)
 ---------------------------------------------------------------------------
    1   CONVERTIBLE      HARMONIC     1.000E+00    VERTICAL K  NON-WETTABLE

 WETTING CAPABILITY IS NOT ACTIVE IN ANY LAYER

    HYD. COND. ALONG ROWS =   1.00000     FOR LAYER   1

      VERTICAL HYD. COND. =   1.00000     FOR LAYER   1

         SPECIFIC STORAGE =  1.000000E-04 FOR LAYER   1

           SPECIFIC YIELD =  0.100000     FOR LAYER   1

 WEL -- WELL PACKAGE, VERSION 7, 5/2/2005 INPUT READ FROM UNIT   20
 # Well file for MODFLOW, generated by Flopy.
 No named parameters
 MAXIMUM OF      1 ACTIVE WELLS AT ONE TIME


     0 Well parameters

 GHB -- GENERAL-HEAD BOUNDARY PACKAGE, VERSION 7, 5/2/2005
         INPUT READ FROM UNIT   23
 # GHB for MODFLOW, generated by Flopy.
 No named parameters
 MAXIMUM OF     20 ACTIVE GHB CELLS AT ONE TIME


     0 GHB parameters

 PCG -- CONJUGATE-GRADIENT SOLUTION PACKAGE, VERSION 7, 5/2/2005
 # PCG for MODFLOW, generated by Flopy.
 MAXIMUM OF     50 CALLS OF SOLUTION ROUTINE
 MAXIMUM OF     30 INTERNAL ITERATIONS PER CALL TO SOLUTION ROUTINE
 MATRIX PRECONDITIONING TYPE :    1



                                    SOLUTION BY THE CONJUGATE-GRADIENT METHOD
                                   -------------------------------------------
                    MAXIMUM NUMBER OF CALLS TO PCG ROUTINE =       50
                        MAXIMUM ITERATIONS PER CALL TO PCG =       30
                               MATRIX PRECONDITIONING TYPE =        1
        RELAXATION FACTOR (ONLY USED WITH PRECOND. TYPE 1) =    0.10000E+01
 PARAMETER OF POLYNOMIAL PRECOND. = 2 (2) OR IS CALCULATED :        0
                         HEAD CHANGE CRITERION FOR CLOSURE =    0.10000E-04
                     RESIDUAL CHANGE CRITERION FOR CLOSURE =    0.10000E-04
            PCG HEAD AND RESIDUAL CHANGE PRINTOUT INTERVAL =      999
     PRINTING FROM SOLVER IS LIMITED(1) OR SUPPRESSED (>1) =        3
                            STEADY-STATE DAMPING PARAMETER =    0.10000E+01
                               TRANSIENT DAMPING PARAMETER =    0.10000E+01
1
                            STRESS PERIOD NO.    1, LENGTH =   1.000000    
                            -----------------------------------------------

                              NUMBER OF TIME STEPS =     1

                               MULTIPLIER FOR DELT =     1.000

                            INITIAL TIME STEP SIZE =   1.000000    

 WELL NO.  LAYER   ROW   COL   STRESS RATE         
 --------------------------------------------------
      1      1      5      5       0.000    

      1 WELL 

 BOUND. NO. LAYER   ROW   COL     STAGE      CONDUCTANCE         
 ----------------------------------------------------------------
      1      1      1      1       10.00           6000.    
      2      1      1     10       10.00           6000.    
      3      1      2      1       10.00           6000.    
      4      1      2     10       10.00           6000.    
      5      1      3      1       10.00           6000.    
      6      1      3     10       10.00           6000.    
      7      1      4      1       10.00           6000.    
      8      1      4     10       10.00           6000.    
      9      1      5      1       10.00           6000.    
     10      1      5     10       10.00           6000.    
     11      1      6      1       10.00           6000.    
     12      1      6     10       10.00           6000.    
     13      1      7      1       10.00           6000.    
     14      1      7     10       10.00           6000.    
     15      1      8      1       10.00           6000.    
     16      1      8     10       10.00           6000.    
     17      1      9      1       10.00           6000.    
     18      1      9     10       10.00           6000.    
     19      1     10      1       10.00           6000.    
     20      1     10     10       10.00           6000.    

     20 GHB CELLS

 SOLVING FOR HEAD 

 OUTPUT CONTROL FOR STRESS PERIOD    1   TIME STEP    1
    SAVE HEAD FOR ALL LAYERS
    SAVE DRAWDOWN FOR ALL LAYERS
    SAVE BUDGET
    PRINT HEAD FOR ALL LAYERS
    PRINT BUDGET
 UBDSV2 SAVING "   CONSTANT HEAD" ON UNIT  53 AT TIME STEP  1, STRESS PERIOD   1
 UBDSV1 SAVING "FLOW RIGHT FACE " ON UNIT  53 AT TIME STEP  1, STRESS PERIOD   1
 UBDSV1 SAVING "FLOW FRONT FACE " ON UNIT  53 AT TIME STEP  1, STRESS PERIOD   1
1
              HEAD IN LAYER   1 AT END OF TIME STEP   1 IN STRESS PERIOD    1
  ---------------------------------------------------------------------------

            1           2           3           4           5           6           7           8           9          10
 ........................................................................................................................
   1    10.00       10.00       10.00       10.00       10.00       10.00       10.00       10.00       10.00       10.00    
   2    10.00       10.00       10.00       10.00       10.00       10.00       10.00       10.00       10.00       10.00    
   3    10.00       10.00       10.00       10.00       10.00       10.00       10.00       10.00       10.00       10.00    
   4    10.00       10.00       10.00       10.00       10.00       10.00       10.00       10.00       10.00       10.00    
   5    10.00       10.00       10.00       10.00       10.00       10.00       10.00       10.00       10.00       10.00    
   6    10.00       10.00       10.00       10.00       10.00       10.00       10.00       10.00       10.00       10.00    
   7    10.00       10.00       10.00       10.00       10.00       10.00       10.00       10.00       10.00       10.00    
   8    10.00       10.00       10.00       10.00       10.00       10.00       10.00       10.00       10.00       10.00    
   9    10.00       10.00       10.00       10.00       10.00       10.00       10.00       10.00       10.00       10.00    
  10    10.00       10.00       10.00       10.00       10.00       10.00       10.00       10.00       10.00       10.00    

 HEAD WILL BE SAVED ON UNIT   51 AT END OF TIME STEP    1, STRESS PERIOD    1

 DRAWDOWN WILL BE SAVED ON UNIT   52 AT END OF TIME STEP    1, STRESS PERIOD    1
1
  VOLUMETRIC BUDGET FOR ENTIRE MODEL AT END OF TIME STEP    1, STRESS PERIOD   1
  ------------------------------------------------------------------------------

     CUMULATIVE VOLUMES      L**3       RATES FOR THIS TIME STEP      L**3/T
     ------------------                 ------------------------

           IN:                                      IN:
           ---                                      ---
             STORAGE =           0.0000               STORAGE =           0.0000
       CONSTANT HEAD =           0.0000         CONSTANT HEAD =           0.0000
               WELLS =           0.0000                 WELLS =           0.0000
     HEAD DEP BOUNDS =           0.0000       HEAD DEP BOUNDS =           0.0000

            TOTAL IN =           0.0000              TOTAL IN =           0.0000

          OUT:                                     OUT:
          ----                                     ----
             STORAGE =           0.0000               STORAGE =           0.0000
       CONSTANT HEAD =           0.0000         CONSTANT HEAD =           0.0000
               WELLS =           0.0000                 WELLS =           0.0000
     HEAD DEP BOUNDS =           0.0000       HEAD DEP BOUNDS =           0.0000

           TOTAL OUT =           0.0000             TOTAL OUT =           0.0000

            IN - OUT =           0.0000              IN - OUT =           0.0000

 PERCENT DISCREPANCY =           0.00     PERCENT DISCREPANCY =           0.00






         TIME SUMMARY AT END OF TIME STEP    1 IN STRESS PERIOD    1
                    SECONDS     MINUTES      HOURS       DAYS        YEARS
                    -----------------------------------------------------------
   TIME STEP LENGTH  86400.      1440.0      24.000      1.0000     2.73785E-03
 STRESS PERIOD TIME  86400.      1440.0      24.000      1.0000     2.73785E-03
         TOTAL TIME  86400.      1440.0      24.000      1.0000     2.73785E-03
1
1
                            STRESS PERIOD NO.    2, LENGTH =   100.0000    
                            -----------------------------------------------

                              NUMBER OF TIME STEPS =   100

                               MULTIPLIER FOR DELT =     1.000

                            INITIAL TIME STEP SIZE =   1.000000    

 WELL NO.  LAYER   ROW   COL   STRESS RATE         
 --------------------------------------------------
      1      1      5      5       0.000    

      1 WELL 

 BOUND. NO. LAYER   ROW   COL     STAGE      CONDUCTANCE         
 ----------------------------------------------------------------
      1      1      1      1       10.00           6000.    
      2      1      1     10       0.000           5000.    
      3      1      2      1       10.00           6000.    
      4      1      2     10       0.000           5000.    
      5      1      3      1       10.00           6000.    
      6      1      3     10       0.000           5000.    
      7      1      4      1       10.00           6000.    
      8      1      4     10       0.000           5000.    
      9      1      5      1       10.00           6000.    
     10      1      5     10       0.000           5000.    
     11      1      6      1       10.00           6000.    
     12      1      6     10       0.000           5000.    
     13      1      7      1       10.00           6000.    
     14      1      7     10       0.000           5000.    
     15      1      8      1       10.00           6000.    
     16      1      8     10       0.000           5000.    
     17      1      9      1       10.00           6000.    
     18      1      9     10       0.000           5000.    
     19      1     10      1       10.00           6000.    
     20      1     10     10       0.000           5000.    

     20 GHB CELLS

 SOLVING FOR HEAD 

 OUTPUT CONTROL FOR STRESS PERIOD    2   TIME STEP    1
    SAVE HEAD FOR ALL LAYERS
    SAVE DRAWDOWN FOR ALL LAYERS
    SAVE BUDGET
    PRINT HEAD FOR ALL LAYERS
    PRINT BUDGET
 UBDSV1 SAVING "         STORAGE" ON UNIT  53 AT TIME STEP  1, STRESS PERIOD   2
 UBDSV2 SAVING "   CONSTANT HEAD" ON UNIT  53 AT TIME STEP  1, STRESS PERIOD   2
 UBDSV1 SAVING "FLOW RIGHT FACE " ON UNIT  53 AT TIME STEP  1, STRESS PERIOD   2
 UBDSV1 SAVING "FLOW FRONT FACE " ON UNIT  53 AT TIME STEP  1, STRESS PERIOD   2
1
              HEAD IN LAYER   1 AT END OF TIME STEP   1 IN STRESS PERIOD    2
  ---------------------------------------------------------------------------

            1           2           3           4           5           6           7           8           9          10
 ........................................................................................................................
   1    10.00       9.996       9.989       9.970       9.920       9.791       9.452       8.564       6.241      0.1592    
   2    10.00       9.996       9.989       9.970       9.920       9.791       9.452       8.564       6.241      0.1592    
   3    10.00       9.996       9.989       9.970       9.920       9.791       9.452       8.564       6.241      0.1592    
   4    10.00       9.996       9.989       9.970       9.920       9.791       9.452       8.564       6.241      0.1592    
   5    10.00       9.996       9.989       9.970       9.920       9.791       9.452       8.564       6.241      0.1592    
   6    10.00       9.996       9.989       9.970       9.920       9.791       9.452       8.564       6.241      0.1592    
   7    10.00       9.996       9.989       9.970       9.920       9.791       9.452       8.564       6.241      0.1592    
   8    10.00       9.996       9.989       9.970       9.920       9.791       9.452       8.564       6.241      0.1592    
   9    10.00       9.996       9.989       9.970       9.920       9.791       9.452       8.564       6.241      0.1592    
  10    10.00       9.996       9.989       9.970       9.920       9.791       9.452       8.564       6.241      0.1592    

 HEAD WILL BE SAVED ON UNIT   51 AT END OF TIME STEP    1, STRESS PERIOD    2

 DRAWDOWN WILL BE SAVED ON UNIT   52 AT END OF TIME STEP    1, STRESS PERIOD    2
1
  VOLUMETRIC BUDGET FOR ENTIRE MODEL AT END OF TIME STEP    1, STRESS PERIOD   2
  ------------------------------------------------------------------------------

     CUMULATIVE VOLUMES      L**3       RATES FOR THIS TIME STEP      L**3/T
     ------------------                 ------------------------

           IN:                                      IN:
           ---                                      ---
             STORAGE =        7959.4741               STORAGE =        7959.4741
       CONSTANT HEAD =           0.0000         CONSTANT HEAD =           0.0000
               WELLS =           0.0000                 WELLS =           0.0000
     HEAD DEP BOUNDS =           1.8788       HEAD DEP BOUNDS =           1.8788

            TOTAL IN =        7961.3530              TOTAL IN =        7961.3530

          OUT:                                     OUT:
          ----                                     ----
             STORAGE =           0.0000               STORAGE =           0.0000
       CONSTANT HEAD =           0.0000         CONSTANT HEAD =           0.0000
               WELLS =           0.0000                 WELLS =           0.0000
     HEAD DEP BOUNDS =        7961.3530       HEAD DEP BOUNDS =        7961.3530

           TOTAL OUT =        7961.3530             TOTAL OUT =        7961.3530

            IN - OUT =           0.0000              IN - OUT =           0.0000

 PERCENT DISCREPANCY =           0.00     PERCENT DISCREPANCY =           0.00






         TIME SUMMARY AT END OF TIME STEP    1 IN STRESS PERIOD    2
                    SECONDS     MINUTES      HOURS       DAYS        YEARS
                    -----------------------------------------------------------
   TIME STEP LENGTH  86400.      1440.0      24.000      1.0000     2.73785E-03
 STRESS PERIOD TIME  86400.      1440.0      24.000      1.0000     2.73785E-03
         TOTAL TIME 1.72800E+05  2880.0      48.000      2.0000     5.47570E-03
1

 SOLVING FOR HEAD 

 OUTPUT CONTROL FOR STRESS PERIOD    2   TIME STEP    2
    SAVE HEAD FOR ALL LAYERS
    SAVE DRAWDOWN FOR ALL LAYERS
    SAVE BUDGET
    PRINT HEAD FOR ALL LAYERS
    PRINT BUDGET
 UBDSV1 SAVING "         STORAGE" ON UNIT  53 AT TIME STEP  2, STRESS PERIOD   2
 UBDSV2 SAVING "   CONSTANT HEAD" ON UNIT  53 AT TIME STEP  2, STRESS PERIOD   2
 UBDSV1 SAVING "FLOW RIGHT FACE " ON UNIT  53 AT TIME STEP  2, STRESS PERIOD   2
 UBDSV1 SAVING "FLOW FRONT FACE " ON UNIT  53 AT TIME STEP  2, STRESS PERIOD   2
1
              HEAD IN LAYER   1 AT END OF TIME STEP   2 IN STRESS PERIOD    2
  ---------------------------------------------------------------------------

            1           2           3           4           5           6           7           8           9          10
 ........................................................................................................................
   1    10.00       9.983       9.953       9.888       9.740       9.413       8.710       7.264       4.517      4.5844E-02
   2    10.00       9.983       9.953       9.888       9.740       9.413       8.710       7.264       4.517      4.5844E-02
   3    10.00       9.983       9.953       9.888       9.740       9.413       8.710       7.264       4.517      4.5844E-02
   4    10.00       9.983       9.953       9.888       9.740       9.413       8.710       7.264       4.517      4.5844E-02
   5    10.00       9.983       9.953       9.888       9.740       9.413       8.710       7.264       4.517      4.5844E-02
   6    10.00       9.983       9.953       9.888       9.740       9.413       8.710       7.264       4.517      4.5844E-02
   7    10.00       9.983       9.953       9.888       9.740       9.413       8.710       7.264       4.517      4.5844E-02
   8    10.00       9.983       9.953       9.888       9.740       9.413       8.710       7.264       4.517      4.5844E-02
   9    10.00       9.983       9.953       9.888       9.740       9.413       8.710       7.264       4.517      4.5844E-02
  10    10.00       9.983       9.953       9.888       9.740       9.413       8.710       7.264       4.517      4.5844E-02

 HEAD WILL BE SAVED ON UNIT   51 AT END OF TIME STEP    2, STRESS PERIOD    2

 DRAWDOWN WILL BE SAVED ON UNIT   52 AT END OF TIME STEP    2, STRESS PERIOD    2
1
  VOLUMETRIC BUDGET FOR ENTIRE MODEL AT END OF TIME STEP    2, STRESS PERIOD   2
  ------------------------------------------------------------------------------

     CUMULATIVE VOLUMES      L**3       RATES FOR THIS TIME STEP      L**3/T
     ------------------                 ------------------------

           IN:                                      IN:
           ---                                      ---
             STORAGE =       10243.3164               STORAGE =        2283.8418
       CONSTANT HEAD =           0.0000         CONSTANT HEAD =           0.0000
               WELLS =           0.0000                 WELLS =           0.0000
     HEAD DEP BOUNDS =          10.2169       HEAD DEP BOUNDS =           8.3380

            TOTAL IN =       10253.5332              TOTAL IN =        2292.1799

          OUT:                                     OUT:
          ----                                     ----
             STORAGE =           0.0000               STORAGE =           0.0000
       CONSTANT HEAD =           0.0000         CONSTANT HEAD =           0.0000
               WELLS =           0.0000                 WELLS =           0.0000
     HEAD DEP BOUNDS =       10253.5488       HEAD DEP BOUNDS =        2292.1953

           TOTAL OUT =       10253.5488             TOTAL OUT =        2292.1953

            IN - OUT =      -1.5625E-02              IN - OUT =      -1.5381E-02

 PERCENT DISCREPANCY =          -0.00     PERCENT DISCREPANCY =          -0.00






         TIME SUMMARY AT END OF TIME STEP    2 IN STRESS PERIOD    2
                    SECONDS     MINUTES      HOURS       DAYS        YEARS
                    -----------------------------------------------------------
   TIME STEP LENGTH  86400.      1440.0      24.000      1.0000     2.73785E-03
 STRESS PERIOD TIME 1.72800E+05  2880.0      48.000      2.0000     5.47570E-03
         TOTAL TIME 2.59200E+05  4320.0      72.000      3.0000     8.21355E-03
1

 SOLVING FOR HEAD 

 OUTPUT CONTROL FOR STRESS PERIOD    2   TIME STEP    3
    SAVE HEAD FOR ALL LAYERS
    SAVE DRAWDOWN FOR ALL LAYERS
    SAVE BUDGET
    PRINT HEAD FOR ALL LAYERS
    PRINT BUDGET
 UBDSV1 SAVING "         STORAGE" ON UNIT  53 AT TIME STEP  3, STRESS PERIOD   2
 UBDSV2 SAVING "   CONSTANT HEAD" ON UNIT  53 AT TIME STEP  3, STRESS PERIOD   2
 UBDSV1 SAVING "FLOW RIGHT FACE " ON UNIT  53 AT TIME STEP  3, STRESS PERIOD   2
 UBDSV1 SAVING "FLOW FRONT FACE " ON UNIT  53 AT TIME STEP  3, STRESS PERIOD   2
1
              HEAD IN LAYER   1 AT END OF TIME STEP   3 IN STRESS PERIOD    2
  ---------------------------------------------------------------------------

            1           2           3           4           5           6           7           8           9          10
 ........................................................................................................................
   1    10.00       9.957       9.888       9.754       9.485       8.962       7.986       6.288       3.614      3.5876E-02
   2    10.00       9.957       9.888       9.754       9.485       8.962       7.986       6.288       3.614      3.5876E-02
   3    10.00       9.957       9.888       9.754       9.485       8.962       7.986       6.288       3.614      3.5876E-02
   4    10.00       9.957       9.888       9.754       9.485       8.962       7.986       6.288       3.614      3.5876E-02
   5    10.00       9.957       9.888       9.754       9.485       8.962       7.986       6.288       3.614      3.5876E-02
   6    10.00       9.957       9.888       9.754       9.485       8.962       7.986       6.288       3.614      3.5876E-02
   7    10.00       9.957       9.888       9.754       9.485       8.962       7.986       6.288       3.614      3.5876E-02
   8    10.00       9.957       9.888       9.754       9.485       8.962       7.986       6.288       3.614      3.5876E-02
   9    10.00       9.957       9.888       9.754       9.485       8.962       7.986       6.288       3.614      3.5876E-02
  10    10.00       9.957       9.888       9.754       9.485       8.962       7.986       6.288       3.614      3.5876E-02

 HEAD WILL BE SAVED ON UNIT   51 AT END OF TIME STEP    3, STRESS PERIOD    2

 DRAWDOWN WILL BE SAVED ON UNIT   52 AT END OF TIME STEP    3, STRESS PERIOD    2
1
  VOLUMETRIC BUDGET FOR ENTIRE MODEL AT END OF TIME STEP    3, STRESS PERIOD   2
  ------------------------------------------------------------------------------

     CUMULATIVE VOLUMES      L**3       RATES FOR THIS TIME STEP      L**3/T
     ------------------                 ------------------------

           IN:                                      IN:
           ---                                      ---
             STORAGE =       12015.8242               STORAGE =        1772.5074
       CONSTANT HEAD =           0.0000         CONSTANT HEAD =           0.0000
               WELLS =           0.0000                 WELLS =           0.0000
     HEAD DEP BOUNDS =          31.5182       HEAD DEP BOUNDS =          21.3013

            TOTAL IN =       12047.3428              TOTAL IN =        1793.8087

          OUT:                                     OUT:
          ----                                     ----
             STORAGE =           0.0000               STORAGE =           0.0000
       CONSTANT HEAD =           0.0000         CONSTANT HEAD =           0.0000
               WELLS =           0.0000                 WELLS =           0.0000
     HEAD DEP BOUNDS =       12047.3496       HEAD DEP BOUNDS =        1793.8009

           TOTAL OUT =       12047.3496             TOTAL OUT =        1793.8009

            IN - OUT =      -6.8359E-03              IN - OUT =       7.8125E-03

 PERCENT DISCREPANCY =          -0.00     PERCENT DISCREPANCY =           0.00






         TIME SUMMARY AT END OF TIME STEP    3 IN STRESS PERIOD    2
                    SECONDS     MINUTES      HOURS       DAYS        YEARS
                    -----------------------------------------------------------
   TIME STEP LENGTH  86400.      1440.0      24.000      1.0000     2.73785E-03
 STRESS PERIOD TIME 2.59200E+05  4320.0      72.000      3.0000     8.21355E-03
         TOTAL TIME 3.45600E+05  5760.0      96.000      4.0000     1.09514E-02
1

 SOLVING FOR HEAD 

 OUTPUT CONTROL FOR STRESS PERIOD    2   TIME STEP    4
    SAVE HEAD FOR ALL LAYERS
    SAVE DRAWDOWN FOR ALL LAYERS
    SAVE BUDGET
    PRINT HEAD FOR ALL LAYERS
    PRINT BUDGET
 UBDSV1 SAVING "         STORAGE" ON UNIT  53 AT TIME STEP  4, STRESS PERIOD   2
 UBDSV2 SAVING "   CONSTANT HEAD" ON UNIT  53 AT TIME STEP  4, STRESS PERIOD   2
 UBDSV1 SAVING "FLOW RIGHT FACE " ON UNIT  53 AT TIME STEP  4, STRESS PERIOD   2
 UBDSV1 SAVING "FLOW FRONT FACE " ON UNIT  53 AT TIME STEP  4, STRESS PERIOD   2
1
              HEAD IN LAYER   1 AT END OF TIME STEP   4 IN STRESS PERIOD    2
  ---------------------------------------------------------------------------

            1           2           3           4           5           6           7           8           9          10
 ........................................................................................................................
   1    9.999       9.917       9.795       9.579       9.188       8.501       7.353       5.571       3.072      3.0465E-02
   2    9.999       9.917       9.795       9.579       9.188       8.501       7.353       5.571       3.072      3.0465E-02
   3    9.999       9.917       9.795       9.579       9.188       8.501       7.353       5.571       3.072      3.0465E-02
   4    9.999       9.917       9.795       9.579       9.188       8.501       7.353       5.571       3.072      3.0465E-02
   5    9.999       9.917       9.795       9.579       9.188       8.501       7.353       5.571       3.072      3.0465E-02
   6    9.999       9.917       9.795       9.579       9.188       8.501       7.353       5.571       3.072      3.0465E-02
   7    9.999       9.917       9.795       9.579       9.188       8.501       7.353       5.571       3.072      3.0465E-02
   8    9.999       9.917       9.795       9.579       9.188       8.501       7.353       5.571       3.072      3.0465E-02
   9    9.999       9.917       9.795       9.579       9.188       8.501       7.353       5.571       3.072      3.0465E-02
  10    9.999       9.917       9.795       9.579       9.188       8.501       7.353       5.571       3.072      3.0465E-02

 HEAD WILL BE SAVED ON UNIT   51 AT END OF TIME STEP    4, STRESS PERIOD    2

 DRAWDOWN WILL BE SAVED ON UNIT   52 AT END OF TIME STEP    4, STRESS PERIOD    2
1
  VOLUMETRIC BUDGET FOR ENTIRE MODEL AT END OF TIME STEP    4, STRESS PERIOD   2
  ------------------------------------------------------------------------------

     CUMULATIVE VOLUMES      L**3       RATES FOR THIS TIME STEP      L**3/T
     ------------------                 ------------------------

           IN:                                      IN:
           ---                                      ---
             STORAGE =       13498.0205               STORAGE =        1482.1967
       CONSTANT HEAD =           0.0000         CONSTANT HEAD =           0.0000
               WELLS =           0.0000                 WELLS =           0.0000
     HEAD DEP BOUNDS =          72.5846       HEAD DEP BOUNDS =          41.0664

            TOTAL IN =       13570.6055              TOTAL IN =        1523.2631

          OUT:                                     OUT:
          ----                                     ----
             STORAGE =           0.0000               STORAGE =           0.0000
       CONSTANT HEAD =           0.0000         CONSTANT HEAD =           0.0000
               WELLS =           0.0000                 WELLS =           0.0000
     HEAD DEP BOUNDS =       13570.5947       HEAD DEP BOUNDS =        1523.2450

           TOTAL OUT =       13570.5947             TOTAL OUT =        1523.2450

            IN - OUT =       1.0742E-02              IN - OUT =       1.8066E-02

 PERCENT DISCREPANCY =           0.00     PERCENT DISCREPANCY =           0.00






         TIME SUMMARY AT END OF TIME STEP    4 IN STRESS PERIOD    2
                    SECONDS     MINUTES      HOURS       DAYS        YEARS
                    -----------------------------------------------------------
   TIME STEP LENGTH  86400.      1440.0      24.000      1.0000     2.73785E-03
 STRESS PERIOD TIME 3.45600E+05  5760.0      96.000      4.0000     1.09514E-02
         TOTAL TIME 4.32000E+05  7200.0      120.00      5.0000     1.36893E-02
1

 SOLVING FOR HEAD 

 OUTPUT CONTROL FOR STRESS PERIOD    2   TIME STEP    5
    SAVE HEAD FOR ALL LAYERS
    SAVE DRAWDOWN FOR ALL LAYERS
    SAVE BUDGET
    PRINT HEAD FOR ALL LAYERS
    PRINT BUDGET
 UBDSV1 SAVING "         STORAGE" ON UNIT  53 AT TIME STEP  5, STRESS PERIOD   2
 UBDSV2 SAVING "   CONSTANT HEAD" ON UNIT  53 AT TIME STEP  5, STRESS PERIOD   2
 UBDSV1 SAVING "FLOW RIGHT FACE " ON UNIT  53 AT TIME STEP  5, STRESS PERIOD   2
 UBDSV1 SAVING "FLOW FRONT FACE " ON UNIT  53 AT TIME STEP  5, STRESS PERIOD   2
1
              HEAD IN LAYER   1 AT END OF TIME STEP   5 IN STRESS PERIOD    2
  ---------------------------------------------------------------------------

            1           2           3           4           5           6           7           8           9          10
 ........................................................................................................................
   1    9.999       9.865       9.679       9.378       8.877       8.065       6.817       5.033       2.710      2.6870E-02
   2    9.999       9.865       9.679       9.378       8.877       8.065       6.817       5.033       2.710      2.6870E-02
   3    9.999       9.865       9.679       9.378       8.877       8.065       6.817       5.033       2.710      2.6870E-02
   4    9.999       9.865       9.679       9.378       8.877       8.065       6.817       5.033       2.710      2.6870E-02
   5    9.999       9.865       9.679       9.378       8.877       8.065       6.817       5.033       2.710      2.6870E-02
   6    9.999       9.865       9.679       9.378       8.877       8.065       6.817       5.033       2.710      2.6870E-02
   7    9.999       9.865       9.679       9.378       8.877       8.065       6.817       5.033       2.710      2.6870E-02
   8    9.999       9.865       9.679       9.378       8.877       8.065       6.817       5.033       2.710      2.6870E-02
   9    9.999       9.865       9.679       9.378       8.877       8.065       6.817       5.033       2.710      2.6870E-02
  10    9.999       9.865       9.679       9.378       8.877       8.065       6.817       5.033       2.710      2.6870E-02

 HEAD WILL BE SAVED ON UNIT   51 AT END OF TIME STEP    5, STRESS PERIOD    2

 DRAWDOWN WILL BE SAVED ON UNIT   52 AT END OF TIME STEP    5, STRESS PERIOD    2
1
  VOLUMETRIC BUDGET FOR ENTIRE MODEL AT END OF TIME STEP    5, STRESS PERIOD   2
  ------------------------------------------------------------------------------

     CUMULATIVE VOLUMES      L**3       RATES FOR THIS TIME STEP      L**3/T
     ------------------                 ------------------------

           IN:                                      IN:
           ---                                      ---
             STORAGE =       14774.8330               STORAGE =        1276.8127
       CONSTANT HEAD =           0.0000         CONSTANT HEAD =           0.0000
               WELLS =           0.0000                 WELLS =           0.0000
     HEAD DEP BOUNDS =         139.3060       HEAD DEP BOUNDS =          66.7214

            TOTAL IN =       14914.1387              TOTAL IN =        1343.5342

          OUT:                                     OUT:
          ----                                     ----
             STORAGE =           0.0000               STORAGE =           0.0000
       CONSTANT HEAD =           0.0000         CONSTANT HEAD =           0.0000
               WELLS =           0.0000                 WELLS =           0.0000
     HEAD DEP BOUNDS =       14914.1191       HEAD DEP BOUNDS =        1343.5248

           TOTAL OUT =       14914.1191             TOTAL OUT =        1343.5248

            IN - OUT =       1.9531E-02              IN - OUT =       9.3994E-03

 PERCENT DISCREPANCY =           0.00     PERCENT DISCREPANCY =           0.00






         TIME SUMMARY AT END OF TIME STEP    5 IN STRESS PERIOD    2
                    SECONDS     MINUTES      HOURS       DAYS        YEARS
                    -----------------------------------------------------------
   TIME STEP LENGTH  86400.      1440.0      24.000      1.0000     2.73785E-03
 STRESS PERIOD TIME 4.32000E+05  7200.0      120.00      5.0000     1.36893E-02
         TOTAL TIME 5.18400E+05  8640.0      144.00      6.0000     1.64271E-02
1

 SOLVING FOR HEAD 

 OUTPUT CONTROL FOR STRESS PERIOD    2   TIME STEP    6
    SAVE HEAD FOR ALL LAYERS
    SAVE DRAWDOWN FOR ALL LAYERS
    SAVE BUDGET
    PRINT HEAD FOR ALL LAYERS
    PRINT BUDGET
 UBDSV1 SAVING "         STORAGE" ON UNIT  53 AT TIME STEP  6, STRESS PERIOD   2
 UBDSV2 SAVING "   CONSTANT HEAD" ON UNIT  53 AT TIME STEP  6, STRESS PERIOD   2
 UBDSV1 SAVING "FLOW RIGHT FACE " ON UNIT  53 AT TIME STEP  6, STRESS PERIOD   2
 UBDSV1 SAVING "FLOW FRONT FACE " ON UNIT  53 AT TIME STEP  6, STRESS PERIOD   2
1
              HEAD IN LAYER   1 AT END OF TIME STEP   6 IN STRESS PERIOD    2
  ---------------------------------------------------------------------------

            1           2           3           4           5           6           7           8           9          10
 ........................................................................................................................
   1    9.998       9.804       9.550       9.166       8.570       7.667       6.367       4.617       2.450      2.4287E-02
   2    9.998       9.804       9.550       9.166       8.570       7.667       6.367       4.617       2.450      2.4287E-02
   3    9.998       9.804       9.550       9.166       8.570       7.667       6.367       4.617       2.450      2.4287E-02
   4    9.998       9.804       9.550       9.166       8.570       7.667       6.367       4.617       2.450      2.4287E-02
   5    9.998       9.804       9.550       9.166       8.570       7.667       6.367       4.617       2.450      2.4287E-02
   6    9.998       9.804       9.550       9.166       8.570       7.667       6.367       4.617       2.450      2.4287E-02
   7    9.998       9.804       9.550       9.166       8.570       7.667       6.367       4.617       2.450      2.4287E-02
   8    9.998       9.804       9.550       9.166       8.570       7.667       6.367       4.617       2.450      2.4287E-02
   9    9.998       9.804       9.550       9.166       8.570       7.667       6.367       4.617       2.450      2.4287E-02
  10    9.998       9.804       9.550       9.166       8.570       7.667       6.367       4.617       2.450      2.4287E-02

 HEAD WILL BE SAVED ON UNIT   51 AT END OF TIME STEP    6, STRESS PERIOD    2

 DRAWDOWN WILL BE SAVED ON UNIT   52 AT END OF TIME STEP    6, STRESS PERIOD    2
1
  VOLUMETRIC BUDGET FOR ENTIRE MODEL AT END OF TIME STEP    6, STRESS PERIOD   2
  ------------------------------------------------------------------------------

     CUMULATIVE VOLUMES      L**3       RATES FOR THIS TIME STEP      L**3/T
     ------------------                 ------------------------

           IN:                                      IN:
           ---                                      ---
             STORAGE =       15892.4844               STORAGE =        1117.6511
       CONSTANT HEAD =           0.0000         CONSTANT HEAD =           0.0000
               WELLS =           0.0000                 WELLS =           0.0000
     HEAD DEP BOUNDS =         236.0002       HEAD DEP BOUNDS =          96.6942

            TOTAL IN =       16128.4844              TOTAL IN =        1214.3453

          OUT:                                     OUT:
          ----                                     ----
             STORAGE =           0.0000               STORAGE =           0.0000
       CONSTANT HEAD =           0.0000         CONSTANT HEAD =           0.0000
               WELLS =           0.0000                 WELLS =           0.0000
     HEAD DEP BOUNDS =       16128.4736       HEAD DEP BOUNDS =        1214.3546

           TOTAL OUT =       16128.4736             TOTAL OUT =        1214.3546

            IN - OUT =       1.0742E-02              IN - OUT =      -9.2773E-03

 PERCENT DISCREPANCY =           0.00     PERCENT DISCREPANCY =          -0.00






         TIME SUMMARY AT END OF TIME STEP    6 IN STRESS PERIOD    2
                    SECONDS     MINUTES      HOURS       DAYS        YEARS
                    -----------------------------------------------------------
   TIME STEP LENGTH  86400.      1440.0      24.000      1.0000     2.73785E-03
 STRESS PERIOD TIME 5.18400E+05  8640.0      144.00      6.0000     1.64271E-02
         TOTAL TIME 6.04800E+05  10080.      168.00      7.0000     1.91650E-02
1

 SOLVING FOR HEAD 

 OUTPUT CONTROL FOR STRESS PERIOD    2   TIME STEP    7
    SAVE HEAD FOR ALL LAYERS
    SAVE DRAWDOWN FOR ALL LAYERS
    SAVE BUDGET
    PRINT HEAD FOR ALL LAYERS
    PRINT BUDGET
 UBDSV1 SAVING "         STORAGE" ON UNIT  53 AT TIME STEP  7, STRESS PERIOD   2
 UBDSV2 SAVING "   CONSTANT HEAD" ON UNIT  53 AT TIME STEP  7, STRESS PERIOD   2
 UBDSV1 SAVING "FLOW RIGHT FACE " ON UNIT  53 AT TIME STEP  7, STRESS PERIOD   2
 UBDSV1 SAVING "FLOW FRONT FACE " ON UNIT  53 AT TIME STEP  7, STRESS PERIOD   2
1
              HEAD IN LAYER   1 AT END OF TIME STEP   7 IN STRESS PERIOD    2
  ---------------------------------------------------------------------------

            1           2           3           4           5           6           7           8           9          10
 ........................................................................................................................
   1    9.998       9.739       9.414       8.953       8.278       7.311       5.988       4.286       2.253      2.2325E-02
   2    9.998       9.739       9.414       8.953       8.278       7.311       5.988       4.286       2.253      2.2325E-02
   3    9.998       9.739       9.414       8.953       8.278       7.311       5.988       4.286       2.253      2.2325E-02
   4    9.998       9.739       9.414       8.953       8.278       7.311       5.988       4.286       2.253      2.2325E-02
   5    9.998       9.739       9.414       8.953       8.278       7.311       5.988       4.286       2.253      2.2325E-02
   6    9.998       9.739       9.414       8.953       8.278       7.311       5.988       4.286       2.253      2.2325E-02
   7    9.998       9.739       9.414       8.953       8.278       7.311       5.988       4.286       2.253      2.2325E-02
   8    9.998       9.739       9.414       8.953       8.278       7.311       5.988       4.286       2.253      2.2325E-02
   9    9.998       9.739       9.414       8.953       8.278       7.311       5.988       4.286       2.253      2.2325E-02
  10    9.998       9.739       9.414       8.953       8.278       7.311       5.988       4.286       2.253      2.2325E-02

 HEAD WILL BE SAVED ON UNIT   51 AT END OF TIME STEP    7, STRESS PERIOD    2

 DRAWDOWN WILL BE SAVED ON UNIT   52 AT END OF TIME STEP    7, STRESS PERIOD    2
1
  VOLUMETRIC BUDGET FOR ENTIRE MODEL AT END OF TIME STEP    7, STRESS PERIOD   2
  ------------------------------------------------------------------------------

     CUMULATIVE VOLUMES      L**3       RATES FOR THIS TIME STEP      L**3/T
     ------------------                 ------------------------

           IN:                                      IN:
           ---                                      ---
             STORAGE =       16879.4316               STORAGE =         986.9474
       CONSTANT HEAD =           0.0000         CONSTANT HEAD =           0.0000
               WELLS =           0.0000                 WELLS =           0.0000
     HEAD DEP BOUNDS =         365.3090       HEAD DEP BOUNDS =         129.3087

            TOTAL IN =       17244.7402              TOTAL IN =        1116.2561

          OUT:                                     OUT:
          ----                                     ----
             STORAGE =           0.0000               STORAGE =           0.0000
       CONSTANT HEAD =           0.0000         CONSTANT HEAD =           0.0000
               WELLS =           0.0000                 WELLS =           0.0000
     HEAD DEP BOUNDS =       17244.7168       HEAD DEP BOUNDS =        1116.2426

           TOTAL OUT =       17244.7168             TOTAL OUT =        1116.2426

            IN - OUT =       2.3438E-02              IN - OUT =       1.3550E-02

 PERCENT DISCREPANCY =           0.00     PERCENT DISCREPANCY =           0.00






         TIME SUMMARY AT END OF TIME STEP    7 IN STRESS PERIOD    2
                    SECONDS     MINUTES      HOURS       DAYS        YEARS
                    -----------------------------------------------------------
   TIME STEP LENGTH  86400.      1440.0      24.000      1.0000     2.73785E-03
 STRESS PERIOD TIME 6.04800E+05  10080.      168.00      7.0000     1.91650E-02
         TOTAL TIME 6.91200E+05  11520.      192.00      8.0000     2.19028E-02
1

 SOLVING FOR HEAD 

 OUTPUT CONTROL FOR STRESS PERIOD    2   TIME STEP    8
    SAVE HEAD FOR ALL LAYERS
    SAVE DRAWDOWN FOR ALL LAYERS
    SAVE BUDGET
    PRINT HEAD FOR ALL LAYERS
    PRINT BUDGET
 UBDSV1 SAVING "         STORAGE" ON UNIT  53 AT TIME STEP  8, STRESS PERIOD   2
 UBDSV2 SAVING "   CONSTANT HEAD" ON UNIT  53 AT TIME STEP  8, STRESS PERIOD   2
 UBDSV1 SAVING "FLOW RIGHT FACE " ON UNIT  53 AT TIME STEP  8, STRESS PERIOD   2
 UBDSV1 SAVING "FLOW FRONT FACE " ON UNIT  53 AT TIME STEP  8, STRESS PERIOD   2
1
              HEAD IN LAYER   1 AT END OF TIME STEP   8 IN STRESS PERIOD    2
  ---------------------------------------------------------------------------

            1           2           3           4           5           6           7           8           9          10
 ........................................................................................................................
   1    9.997       9.671       9.277       8.745       8.006       6.994       5.666       4.016       2.097      2.0774E-02
   2    9.997       9.671       9.277       8.745       8.006       6.994       5.666       4.016       2.097      2.0774E-02
   3    9.997       9.671       9.277       8.745       8.006       6.994       5.666       4.016       2.097      2.0774E-02
   4    9.997       9.671       9.277       8.745       8.006       6.994       5.666       4.016       2.097      2.0774E-02
   5    9.997       9.671       9.277       8.745       8.006       6.994       5.666       4.016       2.097      2.0774E-02
   6    9.997       9.671       9.277       8.745       8.006       6.994       5.666       4.016       2.097      2.0774E-02
   7    9.997       9.671       9.277       8.745       8.006       6.994       5.666       4.016       2.097      2.0774E-02
   8    9.997       9.671       9.277       8.745       8.006       6.994       5.666       4.016       2.097      2.0774E-02
   9    9.997       9.671       9.277       8.745       8.006       6.994       5.666       4.016       2.097      2.0774E-02
  10    9.997       9.671       9.277       8.745       8.006       6.994       5.666       4.016       2.097      2.0774E-02

 HEAD WILL BE SAVED ON UNIT   51 AT END OF TIME STEP    8, STRESS PERIOD    2

 DRAWDOWN WILL BE SAVED ON UNIT   52 AT END OF TIME STEP    8, STRESS PERIOD    2
1
  VOLUMETRIC BUDGET FOR ENTIRE MODEL AT END OF TIME STEP    8, STRESS PERIOD   2
  ------------------------------------------------------------------------------

     CUMULATIVE VOLUMES      L**3       RATES FOR THIS TIME STEP      L**3/T
     ------------------                 ------------------------

           IN:                                      IN:
           ---                                      ---
             STORAGE =       17755.1875               STORAGE =         875.7559
       CONSTANT HEAD =           0.0000         CONSTANT HEAD =           0.0000
               WELLS =           0.0000                 WELLS =           0.0000
     HEAD DEP BOUNDS =         528.2602       HEAD DEP BOUNDS =         162.9512

            TOTAL IN =       18283.4473              TOTAL IN =        1038.7070

          OUT:                                     OUT:
          ----                                     ----
             STORAGE =           0.0000               STORAGE =           0.0000
       CONSTANT HEAD =           0.0000         CONSTANT HEAD =           0.0000
               WELLS =           0.0000                 WELLS =           0.0000
     HEAD DEP BOUNDS =       18283.4082       HEAD DEP BOUNDS =        1038.6908

           TOTAL OUT =       18283.4082             TOTAL OUT =        1038.6908

            IN - OUT =       3.9062E-02              IN - OUT =       1.6235E-02

 PERCENT DISCREPANCY =           0.00     PERCENT DISCREPANCY =           0.00






         TIME SUMMARY AT END OF TIME STEP    8 IN STRESS PERIOD    2
                    SECONDS     MINUTES      HOURS       DAYS        YEARS
                    -----------------------------------------------------------
   TIME STEP LENGTH  86400.      1440.0      24.000      1.0000     2.73785E-03
 STRESS PERIOD TIME 6.91200E+05  11520.      192.00      8.0000     2.19028E-02
         TOTAL TIME 7.77600E+05  12960.      216.00      9.0000     2.46407E-02
1

 SOLVING FOR HEAD 

 OUTPUT CONTROL FOR STRESS PERIOD    2   TIME STEP    9
    SAVE HEAD FOR ALL LAYERS
    SAVE DRAWDOWN FOR ALL LAYERS
    SAVE BUDGET
    PRINT HEAD FOR ALL LAYERS
    PRINT BUDGET
 UBDSV1 SAVING "         STORAGE" ON UNIT  53 AT TIME STEP  9, STRESS PERIOD   2
 UBDSV2 SAVING "   CONSTANT HEAD" ON UNIT  53 AT TIME STEP  9, STRESS PERIOD   2
 UBDSV1 SAVING "FLOW RIGHT FACE " ON UNIT  53 AT TIME STEP  9, STRESS PERIOD   2
 UBDSV1 SAVING "FLOW FRONT FACE " ON UNIT  53 AT TIME STEP  9, STRESS PERIOD   2
1
              HEAD IN LAYER   1 AT END OF TIME STEP   9 IN STRESS PERIOD    2
  ---------------------------------------------------------------------------

            1           2           3           4           5           6           7           8           9          10
 ........................................................................................................................
   1    9.997       9.603       9.143       8.548       7.756       6.714       5.391       3.792       1.969      1.9511E-02
   2    9.997       9.603       9.143       8.548       7.756       6.714       5.391       3.792       1.969      1.9511E-02
   3    9.997       9.603       9.143       8.548       7.756       6.714       5.391       3.792       1.969      1.9511E-02
   4    9.997       9.603       9.143       8.548       7.756       6.714       5.391       3.792       1.969      1.9511E-02
   5    9.997       9.603       9.143       8.548       7.756       6.714       5.391       3.792       1.969      1.9511E-02
   6    9.997       9.603       9.143       8.548       7.756       6.714       5.391       3.792       1.969      1.9511E-02
   7    9.997       9.603       9.143       8.548       7.756       6.714       5.391       3.792       1.969      1.9511E-02
   8    9.997       9.603       9.143       8.548       7.756       6.714       5.391       3.792       1.969      1.9511E-02
   9    9.997       9.603       9.143       8.548       7.756       6.714       5.391       3.792       1.969      1.9511E-02
  10    9.997       9.603       9.143       8.548       7.756       6.714       5.391       3.792       1.969      1.9511E-02

 HEAD WILL BE SAVED ON UNIT   51 AT END OF TIME STEP    9, STRESS PERIOD    2

 DRAWDOWN WILL BE SAVED ON UNIT   52 AT END OF TIME STEP    9, STRESS PERIOD    2
1
  VOLUMETRIC BUDGET FOR ENTIRE MODEL AT END OF TIME STEP    9, STRESS PERIOD   2
  ------------------------------------------------------------------------------

     CUMULATIVE VOLUMES      L**3       RATES FOR THIS TIME STEP      L**3/T
     ------------------                 ------------------------

           IN:                                      IN:
           ---                                      ---
             STORAGE =       18534.3652               STORAGE =         779.1783
       CONSTANT HEAD =           0.0000         CONSTANT HEAD =           0.0000
               WELLS =           0.0000                 WELLS =           0.0000
     HEAD DEP BOUNDS =         724.6620       HEAD DEP BOUNDS =         196.4018

            TOTAL IN =       19259.0273              TOTAL IN =         975.5801

          OUT:                                     OUT:
          ----                                     ----
             STORAGE =           0.0000               STORAGE =           0.0000
       CONSTANT HEAD =           0.0000         CONSTANT HEAD =           0.0000
               WELLS =           0.0000                 WELLS =           0.0000
     HEAD DEP BOUNDS =       19258.9785       HEAD DEP BOUNDS =         975.5712

           TOTAL OUT =       19258.9785             TOTAL OUT =         975.5712

            IN - OUT =       4.8828E-02              IN - OUT =       8.8501E-03

 PERCENT DISCREPANCY =           0.00     PERCENT DISCREPANCY =           0.00






         TIME SUMMARY AT END OF TIME STEP    9 IN STRESS PERIOD    2
                    SECONDS     MINUTES      HOURS       DAYS        YEARS
                    -----------------------------------------------------------
   TIME STEP LENGTH  86400.      1440.0      24.000      1.0000     2.73785E-03
 STRESS PERIOD TIME 7.77600E+05  12960.      216.00      9.0000     2.46407E-02
         TOTAL TIME 8.64000E+05  14400.      240.00      10.000     2.73785E-02
1

 SOLVING FOR HEAD 

 OUTPUT CONTROL FOR STRESS PERIOD    2   TIME STEP   10
    SAVE HEAD FOR ALL LAYERS
    SAVE DRAWDOWN FOR ALL LAYERS
    SAVE BUDGET
    PRINT HEAD FOR ALL LAYERS
    PRINT BUDGET
 UBDSV1 SAVING "         STORAGE" ON UNIT  53 AT TIME STEP 10, STRESS PERIOD   2
 UBDSV2 SAVING "   CONSTANT HEAD" ON UNIT  53 AT TIME STEP 10, STRESS PERIOD   2
 UBDSV1 SAVING "FLOW RIGHT FACE " ON UNIT  53 AT TIME STEP 10, STRESS PERIOD   2
 UBDSV1 SAVING "FLOW FRONT FACE " ON UNIT  53 AT TIME STEP 10, STRESS PERIOD   2
1
              HEAD IN LAYER   1 AT END OF TIME STEP  10 IN STRESS PERIOD    2
  ---------------------------------------------------------------------------

            1           2           3           4           5           6           7           8           9          10
 ........................................................................................................................
   1    9.996       9.538       9.015       8.363       7.528       6.465       5.153       3.603       1.864      1.8461E-02
   2    9.996       9.538       9.015       8.363       7.528       6.465       5.153       3.603       1.864      1.8461E-02
   3    9.996       9.538       9.015       8.363       7.528       6.465       5.153       3.603       1.864      1.8461E-02
   4    9.996       9.538       9.015       8.363       7.528       6.465       5.153       3.603       1.864      1.8461E-02
   5    9.996       9.538       9.015       8.363       7.528       6.465       5.153       3.603       1.864      1.8461E-02
   6    9.996       9.538       9.015       8.363       7.528       6.465       5.153       3.603       1.864      1.8461E-02
   7    9.996       9.538       9.015       8.363       7.528       6.465       5.153       3.603       1.864      1.8461E-02
   8    9.996       9.538       9.015       8.363       7.528       6.465       5.153       3.603       1.864      1.8461E-02
   9    9.996       9.538       9.015       8.363       7.528       6.465       5.153       3.603       1.864      1.8461E-02
  10    9.996       9.538       9.015       8.363       7.528       6.465       5.153       3.603       1.864      1.8461E-02

 HEAD WILL BE SAVED ON UNIT   51 AT END OF TIME STEP   10, STRESS PERIOD    2

 DRAWDOWN WILL BE SAVED ON UNIT   52 AT END OF TIME STEP   10, STRESS PERIOD    2
1
  VOLUMETRIC BUDGET FOR ENTIRE MODEL AT END OF TIME STEP   10, STRESS PERIOD   2
  ------------------------------------------------------------------------------

     CUMULATIVE VOLUMES      L**3       RATES FOR THIS TIME STEP      L**3/T
     ------------------                 ------------------------

           IN:                                      IN:
           ---                                      ---
             STORAGE =       19228.6543               STORAGE =         694.2896
       CONSTANT HEAD =           0.0000         CONSTANT HEAD =           0.0000
               WELLS =           0.0000                 WELLS =           0.0000
     HEAD DEP BOUNDS =         953.4413       HEAD DEP BOUNDS =         228.7793

            TOTAL IN =       20182.0957              TOTAL IN =         923.0689

          OUT:                                     OUT:
          ----                                     ----
             STORAGE =           0.0000               STORAGE =           0.0000
       CONSTANT HEAD =           0.0000         CONSTANT HEAD =           0.0000
               WELLS =           0.0000                 WELLS =           0.0000
     HEAD DEP BOUNDS =       20182.0430       HEAD DEP BOUNDS =         923.0643

           TOTAL OUT =       20182.0430             TOTAL OUT =         923.0643

            IN - OUT =       5.2734E-02              IN - OUT =       4.5776E-03

 PERCENT DISCREPANCY =           0.00     PERCENT DISCREPANCY =           0.00






         TIME SUMMARY AT END OF TIME STEP   10 IN STRESS PERIOD    2
                    SECONDS     MINUTES      HOURS       DAYS        YEARS
                    -----------------------------------------------------------
   TIME STEP LENGTH  86400.      1440.0      24.000      1.0000     2.73785E-03
 STRESS PERIOD TIME 8.64000E+05  14400.      240.00      10.000     2.73785E-02
         TOTAL TIME 9.50400E+05  15840.      264.00      11.000     3.01164E-02
1

 SOLVING FOR HEAD 

 OUTPUT CONTROL FOR STRESS PERIOD    2   TIME STEP   11
    SAVE HEAD FOR ALL LAYERS
    SAVE DRAWDOWN FOR ALL LAYERS
    SAVE BUDGET
    PRINT HEAD FOR ALL LAYERS
    PRINT BUDGET
 UBDSV1 SAVING "         STORAGE" ON UNIT  53 AT TIME STEP 11, STRESS PERIOD   2
 UBDSV2 SAVING "   CONSTANT HEAD" ON UNIT  53 AT TIME STEP 11, STRESS PERIOD   2
 UBDSV1 SAVING "FLOW RIGHT FACE " ON UNIT  53 AT TIME STEP 11, STRESS PERIOD   2
 UBDSV1 SAVING "FLOW FRONT FACE " ON UNIT  53 AT TIME STEP 11, STRESS PERIOD   2
1
              HEAD IN LAYER   1 AT END OF TIME STEP  11 IN STRESS PERIOD    2
  ---------------------------------------------------------------------------

            1           2           3           4           5           6           7           8           9          10
 ........................................................................................................................
   1    9.996       9.476       8.895       8.193       7.322       6.244       4.946       3.441       1.774      1.7573E-02
   2    9.996       9.476       8.895       8.193       7.322       6.244       4.946       3.441       1.774      1.7573E-02
   3    9.996       9.476       8.895       8.193       7.322       6.244       4.946       3.441       1.774      1.7573E-02
   4    9.996       9.476       8.895       8.193       7.322       6.244       4.946       3.441       1.774      1.7573E-02
   5    9.996       9.476       8.895       8.193       7.322       6.244       4.946       3.441       1.774      1.7573E-02
   6    9.996       9.476       8.895       8.193       7.322       6.244       4.946       3.441       1.774      1.7573E-02
   7    9.996       9.476       8.895       8.193       7.322       6.244       4.946       3.441       1.774      1.7573E-02
   8    9.996       9.476       8.895       8.193       7.322       6.244       4.946       3.441       1.774      1.7573E-02
   9    9.996       9.476       8.895       8.193       7.322       6.244       4.946       3.441       1.774      1.7573E-02
  10    9.996       9.476       8.895       8.193       7.322       6.244       4.946       3.441       1.774      1.7573E-02

 HEAD WILL BE SAVED ON UNIT   51 AT END OF TIME STEP   11, STRESS PERIOD    2

 DRAWDOWN WILL BE SAVED ON UNIT   52 AT END OF TIME STEP   11, STRESS PERIOD    2
1
  VOLUMETRIC BUDGET FOR ENTIRE MODEL AT END OF TIME STEP   11, STRESS PERIOD   2
  ------------------------------------------------------------------------------

     CUMULATIVE VOLUMES      L**3       RATES FOR THIS TIME STEP      L**3/T
     ------------------                 ------------------------

           IN:                                      IN:
           ---                                      ---
             STORAGE =       19847.8203               STORAGE =         619.1652
       CONSTANT HEAD =           0.0000         CONSTANT HEAD =           0.0000
               WELLS =           0.0000                 WELLS =           0.0000
     HEAD DEP BOUNDS =        1212.9434       HEAD DEP BOUNDS =         259.5020

            TOTAL IN =       21060.7637              TOTAL IN =         878.6672

          OUT:                                     OUT:
          ----                                     ----
             STORAGE =           0.0000               STORAGE =           0.0000
       CONSTANT HEAD =           0.0000         CONSTANT HEAD =           0.0000
               WELLS =           0.0000                 WELLS =           0.0000
     HEAD DEP BOUNDS =       21060.7031       HEAD DEP BOUNDS =         878.6592

           TOTAL OUT =       21060.7031             TOTAL OUT =         878.6592

            IN - OUT =       6.0547E-02              IN - OUT =       7.9956E-03

 PERCENT DISCREPANCY =           0.00     PERCENT DISCREPANCY =           0.00






         TIME SUMMARY AT END OF TIME STEP   11 IN STRESS PERIOD    2
                    SECONDS     MINUTES      HOURS       DAYS        YEARS
                    -----------------------------------------------------------
   TIME STEP LENGTH  86400.      1440.0      24.000      1.0000     2.73785E-03
 STRESS PERIOD TIME 9.50400E+05  15840.      264.00      11.000     3.01164E-02
         TOTAL TIME 1.03680E+06  17280.      288.00      12.000     3.28542E-02
1

 SOLVING FOR HEAD 

 OUTPUT CONTROL FOR STRESS PERIOD    2   TIME STEP   12
    SAVE HEAD FOR ALL LAYERS
    SAVE DRAWDOWN FOR ALL LAYERS
    SAVE BUDGET
    PRINT HEAD FOR ALL LAYERS
    PRINT BUDGET
 UBDSV1 SAVING "         STORAGE" ON UNIT  53 AT TIME STEP 12, STRESS PERIOD   2
 UBDSV2 SAVING "   CONSTANT HEAD" ON UNIT  53 AT TIME STEP 12, STRESS PERIOD   2
 UBDSV1 SAVING "FLOW RIGHT FACE " ON UNIT  53 AT TIME STEP 12, STRESS PERIOD   2
 UBDSV1 SAVING "FLOW FRONT FACE " ON UNIT  53 AT TIME STEP 12, STRESS PERIOD   2
1
              HEAD IN LAYER   1 AT END OF TIME STEP  12 IN STRESS PERIOD    2
  ---------------------------------------------------------------------------

            1           2           3           4           5           6           7           8           9          10
 ........................................................................................................................
   1    9.995       9.418       8.784       8.038       7.136       6.048       4.765       3.301       1.697      1.6813E-02
   2    9.995       9.418       8.784       8.038       7.136       6.048       4.765       3.301       1.697      1.6813E-02
   3    9.995       9.418       8.784       8.038       7.136       6.048       4.765       3.301       1.697      1.6813E-02
   4    9.995       9.418       8.784       8.038       7.136       6.048       4.765       3.301       1.697      1.6813E-02
   5    9.995       9.418       8.784       8.038       7.136       6.048       4.765       3.301       1.697      1.6813E-02
   6    9.995       9.418       8.784       8.038       7.136       6.048       4.765       3.301       1.697      1.6813E-02
   7    9.995       9.418       8.784       8.038       7.136       6.048       4.765       3.301       1.697      1.6813E-02
   8    9.995       9.418       8.784       8.038       7.136       6.048       4.765       3.301       1.697      1.6813E-02
   9    9.995       9.418       8.784       8.038       7.136       6.048       4.765       3.301       1.697      1.6813E-02
  10    9.995       9.418       8.784       8.038       7.136       6.048       4.765       3.301       1.697      1.6813E-02

 HEAD WILL BE SAVED ON UNIT   51 AT END OF TIME STEP   12, STRESS PERIOD    2

 DRAWDOWN WILL BE SAVED ON UNIT   52 AT END OF TIME STEP   12, STRESS PERIOD    2
1
  VOLUMETRIC BUDGET FOR ENTIRE MODEL AT END OF TIME STEP   12, STRESS PERIOD   2
  ------------------------------------------------------------------------------

     CUMULATIVE VOLUMES      L**3       RATES FOR THIS TIME STEP      L**3/T
     ------------------                 ------------------------

           IN:                                      IN:
           ---                                      ---
             STORAGE =       20400.2461               STORAGE =         552.4263
       CONSTANT HEAD =           0.0000         CONSTANT HEAD =           0.0000
               WELLS =           0.0000                 WELLS =           0.0000
     HEAD DEP BOUNDS =        1501.1328       HEAD DEP BOUNDS =         288.1895

            TOTAL IN =       21901.3789              TOTAL IN =         840.6158

          OUT:                                     OUT:
          ----                                     ----
             STORAGE =           0.0000               STORAGE =           0.0000
       CONSTANT HEAD =           0.0000         CONSTANT HEAD =           0.0000
               WELLS =           0.0000                 WELLS =           0.0000
     HEAD DEP BOUNDS =       21901.3340       HEAD DEP BOUNDS =         840.6306

           TOTAL OUT =       21901.3340             TOTAL OUT =         840.6306

            IN - OUT =       4.4922E-02              IN - OUT =      -1.4709E-02

 PERCENT DISCREPANCY =           0.00     PERCENT DISCREPANCY =          -0.00






         TIME SUMMARY AT END OF TIME STEP   12 IN STRESS PERIOD    2
                    SECONDS     MINUTES      HOURS       DAYS        YEARS
                    -----------------------------------------------------------
   TIME STEP LENGTH  86400.      1440.0      24.000      1.0000     2.73785E-03
 STRESS PERIOD TIME 1.03680E+06  17280.      288.00      12.000     3.28542E-02
         TOTAL TIME 1.12320E+06  18720.      312.00      13.000     3.55921E-02
1

 SOLVING FOR HEAD 

 OUTPUT CONTROL FOR STRESS PERIOD    2   TIME STEP   13
    SAVE HEAD FOR ALL LAYERS
    SAVE DRAWDOWN FOR ALL LAYERS
    SAVE BUDGET
    PRINT HEAD FOR ALL LAYERS
    PRINT BUDGET
 UBDSV1 SAVING "         STORAGE" ON UNIT  53 AT TIME STEP 13, STRESS PERIOD   2
 UBDSV2 SAVING "   CONSTANT HEAD" ON UNIT  53 AT TIME STEP 13, STRESS PERIOD   2
 UBDSV1 SAVING "FLOW RIGHT FACE " ON UNIT  53 AT TIME STEP 13, STRESS PERIOD   2
 UBDSV1 SAVING "FLOW FRONT FACE " ON UNIT  53 AT TIME STEP 13, STRESS PERIOD   2
1
              HEAD IN LAYER   1 AT END OF TIME STEP  13 IN STRESS PERIOD    2
  ---------------------------------------------------------------------------

            1           2           3           4           5           6           7           8           9          10
 ........................................................................................................................
   1    9.995       9.365       8.681       7.896       6.969       5.875       4.606       3.180       1.631      1.6155E-02
   2    9.995       9.365       8.681       7.896       6.969       5.875       4.606       3.180       1.631      1.6155E-02
   3    9.995       9.365       8.681       7.896       6.969       5.875       4.606       3.180       1.631      1.6155E-02
   4    9.995       9.365       8.681       7.896       6.969       5.875       4.606       3.180       1.631      1.6155E-02
   5    9.995       9.365       8.681       7.896       6.969       5.875       4.606       3.180       1.631      1.6155E-02
   6    9.995       9.365       8.681       7.896       6.969       5.875       4.606       3.180       1.631      1.6155E-02
   7    9.995       9.365       8.681       7.896       6.969       5.875       4.606       3.180       1.631      1.6155E-02
   8    9.995       9.365       8.681       7.896       6.969       5.875       4.606       3.180       1.631      1.6155E-02
   9    9.995       9.365       8.681       7.896       6.969       5.875       4.606       3.180       1.631      1.6155E-02
  10    9.995       9.365       8.681       7.896       6.969       5.875       4.606       3.180       1.631      1.6155E-02

 HEAD WILL BE SAVED ON UNIT   51 AT END OF TIME STEP   13, STRESS PERIOD    2

 DRAWDOWN WILL BE SAVED ON UNIT   52 AT END OF TIME STEP   13, STRESS PERIOD    2
1
  VOLUMETRIC BUDGET FOR ENTIRE MODEL AT END OF TIME STEP   13, STRESS PERIOD   2
  ------------------------------------------------------------------------------

     CUMULATIVE VOLUMES      L**3       RATES FOR THIS TIME STEP      L**3/T
     ------------------                 ------------------------

           IN:                                      IN:
           ---                                      ---
             STORAGE =       20893.2578               STORAGE =         493.0120
       CONSTANT HEAD =           0.0000         CONSTANT HEAD =           0.0000
               WELLS =           0.0000                 WELLS =           0.0000
     HEAD DEP BOUNDS =        1815.8492       HEAD DEP BOUNDS =         314.7165

            TOTAL IN =       22709.1074              TOTAL IN =         807.7285

          OUT:                                     OUT:
          ----                                     ----
             STORAGE =           0.0000               STORAGE =           0.0000
       CONSTANT HEAD =           0.0000         CONSTANT HEAD =           0.0000
               WELLS =           0.0000                 WELLS =           0.0000
     HEAD DEP BOUNDS =       22709.0820       HEAD DEP BOUNDS =         807.7474

           TOTAL OUT =       22709.0820             TOTAL OUT =         807.7474

            IN - OUT =       2.5391E-02              IN - OUT =      -1.8860E-02

 PERCENT DISCREPANCY =           0.00     PERCENT DISCREPANCY =          -0.00






         TIME SUMMARY AT END OF TIME STEP   13 IN STRESS PERIOD    2
                    SECONDS     MINUTES      HOURS       DAYS        YEARS
                    -----------------------------------------------------------
   TIME STEP LENGTH  86400.      1440.0      24.000      1.0000     2.73785E-03
 STRESS PERIOD TIME 1.12320E+06  18720.      312.00      13.000     3.55921E-02
         TOTAL TIME 1.20960E+06  20160.      336.00      14.000     3.83299E-02
1

 SOLVING FOR HEAD 

 OUTPUT CONTROL FOR STRESS PERIOD    2   TIME STEP   14
    SAVE HEAD FOR ALL LAYERS
    SAVE DRAWDOWN FOR ALL LAYERS
    SAVE BUDGET
    PRINT HEAD FOR ALL LAYERS
    PRINT BUDGET
 UBDSV1 SAVING "         STORAGE" ON UNIT  53 AT TIME STEP 14, STRESS PERIOD   2
 UBDSV2 SAVING "   CONSTANT HEAD" ON UNIT  53 AT TIME STEP 14, STRESS PERIOD   2
 UBDSV1 SAVING "FLOW RIGHT FACE " ON UNIT  53 AT TIME STEP 14, STRESS PERIOD   2
 UBDSV1 SAVING "FLOW FRONT FACE " ON UNIT  53 AT TIME STEP 14, STRESS PERIOD   2
1
              HEAD IN LAYER   1 AT END OF TIME STEP  14 IN STRESS PERIOD    2
  ---------------------------------------------------------------------------

            1           2           3           4           5           6           7           8           9          10
 ........................................................................................................................
   1    9.994       9.316       8.588       7.768       6.819       5.720       4.466       3.073       1.573      1.5582E-02
   2    9.994       9.316       8.588       7.768       6.819       5.720       4.466       3.073       1.573      1.5582E-02
   3    9.994       9.316       8.588       7.768       6.819       5.720       4.466       3.073       1.573      1.5582E-02
   4    9.994       9.316       8.588       7.768       6.819       5.720       4.466       3.073       1.573      1.5582E-02
   5    9.994       9.316       8.588       7.768       6.819       5.720       4.466       3.073       1.573      1.5582E-02
   6    9.994       9.316       8.588       7.768       6.819       5.720       4.466       3.073       1.573      1.5582E-02
   7    9.994       9.316       8.588       7.768       6.819       5.720       4.466       3.073       1.573      1.5582E-02
   8    9.994       9.316       8.588       7.768       6.819       5.720       4.466       3.073       1.573      1.5582E-02
   9    9.994       9.316       8.588       7.768       6.819       5.720       4.466       3.073       1.573      1.5582E-02
  10    9.994       9.316       8.588       7.768       6.819       5.720       4.466       3.073       1.573      1.5582E-02

 HEAD WILL BE SAVED ON UNIT   51 AT END OF TIME STEP   14, STRESS PERIOD    2

 DRAWDOWN WILL BE SAVED ON UNIT   52 AT END OF TIME STEP   14, STRESS PERIOD    2
1
  VOLUMETRIC BUDGET FOR ENTIRE MODEL AT END OF TIME STEP   14, STRESS PERIOD   2
  ------------------------------------------------------------------------------

     CUMULATIVE VOLUMES      L**3       RATES FOR THIS TIME STEP      L**3/T
     ------------------                 ------------------------

           IN:                                      IN:
           ---                                      ---
             STORAGE =       21333.3105               STORAGE =         440.0522
       CONSTANT HEAD =           0.0000         CONSTANT HEAD =           0.0000
               WELLS =           0.0000                 WELLS =           0.0000
     HEAD DEP BOUNDS =        2154.8936       HEAD DEP BOUNDS =         339.0444

            TOTAL IN =       23488.2031              TOTAL IN =         779.0967

          OUT:                                     OUT:
          ----                                     ----
             STORAGE =           0.0000               STORAGE =           0.0000
       CONSTANT HEAD =           0.0000         CONSTANT HEAD =           0.0000
               WELLS =           0.0000                 WELLS =           0.0000
     HEAD DEP BOUNDS =       23488.1836       HEAD DEP BOUNDS =         779.1021

           TOTAL OUT =       23488.1836             TOTAL OUT =         779.1021

            IN - OUT =       1.9531E-02              IN - OUT =      -5.4321E-03

 PERCENT DISCREPANCY =           0.00     PERCENT DISCREPANCY =          -0.00






         TIME SUMMARY AT END OF TIME STEP   14 IN STRESS PERIOD    2
                    SECONDS     MINUTES      HOURS       DAYS        YEARS
                    -----------------------------------------------------------
   TIME STEP LENGTH  86400.      1440.0      24.000      1.0000     2.73785E-03
 STRESS PERIOD TIME 1.20960E+06  20160.      336.00      14.000     3.83299E-02
         TOTAL TIME 1.29600E+06  21600.      360.00      15.000     4.10678E-02
1

 SOLVING FOR HEAD 

 OUTPUT CONTROL FOR STRESS PERIOD    2   TIME STEP   15
    SAVE HEAD FOR ALL LAYERS
    SAVE DRAWDOWN FOR ALL LAYERS
    SAVE BUDGET
    PRINT HEAD FOR ALL LAYERS
    PRINT BUDGET
 UBDSV1 SAVING "         STORAGE" ON UNIT  53 AT TIME STEP 15, STRESS PERIOD   2
 UBDSV2 SAVING "   CONSTANT HEAD" ON UNIT  53 AT TIME STEP 15, STRESS PERIOD   2
 UBDSV1 SAVING "FLOW RIGHT FACE " ON UNIT  53 AT TIME STEP 15, STRESS PERIOD   2
 UBDSV1 SAVING "FLOW FRONT FACE " ON UNIT  53 AT TIME STEP 15, STRESS PERIOD   2
1
              HEAD IN LAYER   1 AT END OF TIME STEP  15 IN STRESS PERIOD    2
  ---------------------------------------------------------------------------

            1           2           3           4           5           6           7           8           9          10
 ........................................................................................................................
   1    9.994       9.271       8.504       7.652       6.684       5.582       4.343       2.979       1.523      1.5080E-02
   2    9.994       9.271       8.504       7.652       6.684       5.582       4.343       2.979       1.523      1.5080E-02
   3    9.994       9.271       8.504       7.652       6.684       5.582       4.343       2.979       1.523      1.5080E-02
   4    9.994       9.271       8.504       7.652       6.684       5.582       4.343       2.979       1.523      1.5080E-02
   5    9.994       9.271       8.504       7.652       6.684       5.582       4.343       2.979       1.523      1.5080E-02
   6    9.994       9.271       8.504       7.652       6.684       5.582       4.343       2.979       1.523      1.5080E-02
   7    9.994       9.271       8.504       7.652       6.684       5.582       4.343       2.979       1.523      1.5080E-02
   8    9.994       9.271       8.504       7.652       6.684       5.582       4.343       2.979       1.523      1.5080E-02
   9    9.994       9.271       8.504       7.652       6.684       5.582       4.343       2.979       1.523      1.5080E-02
  10    9.994       9.271       8.504       7.652       6.684       5.582       4.343       2.979       1.523      1.5080E-02

 HEAD WILL BE SAVED ON UNIT   51 AT END OF TIME STEP   15, STRESS PERIOD    2

 DRAWDOWN WILL BE SAVED ON UNIT   52 AT END OF TIME STEP   15, STRESS PERIOD    2
1
  VOLUMETRIC BUDGET FOR ENTIRE MODEL AT END OF TIME STEP   15, STRESS PERIOD   2
  ------------------------------------------------------------------------------

     CUMULATIVE VOLUMES      L**3       RATES FOR THIS TIME STEP      L**3/T
     ------------------                 ------------------------

           IN:                                      IN:
           ---                                      ---
             STORAGE =       21726.1230               STORAGE =         392.8123
       CONSTANT HEAD =           0.0000         CONSTANT HEAD =           0.0000
               WELLS =           0.0000                 WELLS =           0.0000
     HEAD DEP BOUNDS =        2516.0737       HEAD DEP BOUNDS =         361.1803

            TOTAL IN =       24242.1973              TOTAL IN =         753.9926

          OUT:                                     OUT:
          ----                                     ----
             STORAGE =           0.0000               STORAGE =           0.0000
       CONSTANT HEAD =           0.0000         CONSTANT HEAD =           0.0000
               WELLS =           0.0000                 WELLS =           0.0000
     HEAD DEP BOUNDS =       24242.1895       HEAD DEP BOUNDS =         754.0062

           TOTAL OUT =       24242.1895             TOTAL OUT =         754.0062

            IN - OUT =       7.8125E-03              IN - OUT =      -1.3611E-02

 PERCENT DISCREPANCY =           0.00     PERCENT DISCREPANCY =          -0.00






         TIME SUMMARY AT END OF TIME STEP   15 IN STRESS PERIOD    2
                    SECONDS     MINUTES      HOURS       DAYS        YEARS
                    -----------------------------------------------------------
   TIME STEP LENGTH  86400.      1440.0      24.000      1.0000     2.73785E-03
 STRESS PERIOD TIME 1.29600E+06  21600.      360.00      15.000     4.10678E-02
         TOTAL TIME 1.38240E+06  23040.      384.00      16.000     4.38056E-02
1

 SOLVING FOR HEAD 

 OUTPUT CONTROL FOR STRESS PERIOD    2   TIME STEP   16
    SAVE HEAD FOR ALL LAYERS
    SAVE DRAWDOWN FOR ALL LAYERS
    SAVE BUDGET
    PRINT HEAD FOR ALL LAYERS
    PRINT BUDGET
 UBDSV1 SAVING "         STORAGE" ON UNIT  53 AT TIME STEP 16, STRESS PERIOD   2
 UBDSV2 SAVING "   CONSTANT HEAD" ON UNIT  53 AT TIME STEP 16, STRESS PERIOD   2
 UBDSV1 SAVING "FLOW RIGHT FACE " ON UNIT  53 AT TIME STEP 16, STRESS PERIOD   2
 UBDSV1 SAVING "FLOW FRONT FACE " ON UNIT  53 AT TIME STEP 16, STRESS PERIOD   2
1
              HEAD IN LAYER   1 AT END OF TIME STEP  16 IN STRESS PERIOD    2
  ---------------------------------------------------------------------------

            1           2           3           4           5           6           7           8           9          10
 ........................................................................................................................
   1    9.994       9.231       8.427       7.548       6.564       5.460       4.233       2.897       1.478      1.4638E-02
   2    9.994       9.231       8.427       7.548       6.564       5.460       4.233       2.897       1.478      1.4638E-02
   3    9.994       9.231       8.427       7.548       6.564       5.460       4.233       2.897       1.478      1.4638E-02
   4    9.994       9.231       8.427       7.548       6.564       5.460       4.233       2.897       1.478      1.4638E-02
   5    9.994       9.231       8.427       7.548       6.564       5.460       4.233       2.897       1.478      1.4638E-02
   6    9.994       9.231       8.427       7.548       6.564       5.460       4.233       2.897       1.478      1.4638E-02
   7    9.994       9.231       8.427       7.548       6.564       5.460       4.233       2.897       1.478      1.4638E-02
   8    9.994       9.231       8.427       7.548       6.564       5.460       4.233       2.897       1.478      1.4638E-02
   9    9.994       9.231       8.427       7.548       6.564       5.460       4.233       2.897       1.478      1.4638E-02
  10    9.994       9.231       8.427       7.548       6.564       5.460       4.233       2.897       1.478      1.4638E-02

 HEAD WILL BE SAVED ON UNIT   51 AT END OF TIME STEP   16, STRESS PERIOD    2

 DRAWDOWN WILL BE SAVED ON UNIT   52 AT END OF TIME STEP   16, STRESS PERIOD    2
1
  VOLUMETRIC BUDGET FOR ENTIRE MODEL AT END OF TIME STEP   16, STRESS PERIOD   2
  ------------------------------------------------------------------------------

     CUMULATIVE VOLUMES      L**3       RATES FOR THIS TIME STEP      L**3/T
     ------------------                 ------------------------

           IN:                                      IN:
           ---                                      ---
             STORAGE =       22076.7852               STORAGE =         350.6613
       CONSTANT HEAD =           0.0000         CONSTANT HEAD =           0.0000
               WELLS =           0.0000                 WELLS =           0.0000
     HEAD DEP BOUNDS =        2897.3333       HEAD DEP BOUNDS =         381.2595

            TOTAL IN =       24974.1191              TOTAL IN =         731.9209

          OUT:                                     OUT:
          ----                                     ----
             STORAGE =           0.0000               STORAGE =           0.0000
       CONSTANT HEAD =           0.0000         CONSTANT HEAD =           0.0000
               WELLS =           0.0000                 WELLS =           0.0000
     HEAD DEP BOUNDS =       24974.1133       HEAD DEP BOUNDS =         731.9232

           TOTAL OUT =       24974.1133             TOTAL OUT =         731.9232

            IN - OUT =       5.8594E-03              IN - OUT =      -2.3193E-03

 PERCENT DISCREPANCY =           0.00     PERCENT DISCREPANCY =          -0.00






         TIME SUMMARY AT END OF TIME STEP   16 IN STRESS PERIOD    2
                    SECONDS     MINUTES      HOURS       DAYS        YEARS
                    -----------------------------------------------------------
   TIME STEP LENGTH  86400.      1440.0      24.000      1.0000     2.73785E-03
 STRESS PERIOD TIME 1.38240E+06  23040.      384.00      16.000     4.38056E-02
         TOTAL TIME 1.46880E+06  24480.      408.00      17.000     4.65435E-02
1

 SOLVING FOR HEAD 

 OUTPUT CONTROL FOR STRESS PERIOD    2   TIME STEP   17
    SAVE HEAD FOR ALL LAYERS
    SAVE DRAWDOWN FOR ALL LAYERS
    SAVE BUDGET
    PRINT HEAD FOR ALL LAYERS
    PRINT BUDGET
 UBDSV1 SAVING "         STORAGE" ON UNIT  53 AT TIME STEP 17, STRESS PERIOD   2
 UBDSV2 SAVING "   CONSTANT HEAD" ON UNIT  53 AT TIME STEP 17, STRESS PERIOD   2
 UBDSV1 SAVING "FLOW RIGHT FACE " ON UNIT  53 AT TIME STEP 17, STRESS PERIOD   2
 UBDSV1 SAVING "FLOW FRONT FACE " ON UNIT  53 AT TIME STEP 17, STRESS PERIOD   2
1
              HEAD IN LAYER   1 AT END OF TIME STEP  17 IN STRESS PERIOD    2
  ---------------------------------------------------------------------------

            1           2           3           4           5           6           7           8           9          10
 ........................................................................................................................
   1    9.993       9.194       8.359       7.454       6.456       5.351       4.136       2.824       1.439      1.4249E-02
   2    9.993       9.194       8.359       7.454       6.456       5.351       4.136       2.824       1.439      1.4249E-02
   3    9.993       9.194       8.359       7.454       6.456       5.351       4.136       2.824       1.439      1.4249E-02
   4    9.993       9.194       8.359       7.454       6.456       5.351       4.136       2.824       1.439      1.4249E-02
   5    9.993       9.194       8.359       7.454       6.456       5.351       4.136       2.824       1.439      1.4249E-02
   6    9.993       9.194       8.359       7.454       6.456       5.351       4.136       2.824       1.439      1.4249E-02
   7    9.993       9.194       8.359       7.454       6.456       5.351       4.136       2.824       1.439      1.4249E-02
   8    9.993       9.194       8.359       7.454       6.456       5.351       4.136       2.824       1.439      1.4249E-02
   9    9.993       9.194       8.359       7.454       6.456       5.351       4.136       2.824       1.439      1.4249E-02
  10    9.993       9.194       8.359       7.454       6.456       5.351       4.136       2.824       1.439      1.4249E-02

 HEAD WILL BE SAVED ON UNIT   51 AT END OF TIME STEP   17, STRESS PERIOD    2

 DRAWDOWN WILL BE SAVED ON UNIT   52 AT END OF TIME STEP   17, STRESS PERIOD    2
1
  VOLUMETRIC BUDGET FOR ENTIRE MODEL AT END OF TIME STEP   17, STRESS PERIOD   2
  ------------------------------------------------------------------------------

     CUMULATIVE VOLUMES      L**3       RATES FOR THIS TIME STEP      L**3/T
     ------------------                 ------------------------

           IN:                                      IN:
           ---                                      ---
             STORAGE =       22389.8262               STORAGE =         313.0417
       CONSTANT HEAD =           0.0000         CONSTANT HEAD =           0.0000
               WELLS =           0.0000                 WELLS =           0.0000
     HEAD DEP BOUNDS =        3296.7051       HEAD DEP BOUNDS =         399.3717

            TOTAL IN =       25686.5312              TOTAL IN =         712.4135

          OUT:                                     OUT:
          ----                                     ----
             STORAGE =           0.0000               STORAGE =           0.0000
       CONSTANT HEAD =           0.0000         CONSTANT HEAD =           0.0000
               WELLS =           0.0000                 WELLS =           0.0000
     HEAD DEP BOUNDS =       25686.5391       HEAD DEP BOUNDS =         712.4261

           TOTAL OUT =       25686.5391             TOTAL OUT =         712.4261

            IN - OUT =      -7.8125E-03              IN - OUT =      -1.2634E-02

 PERCENT DISCREPANCY =          -0.00     PERCENT DISCREPANCY =          -0.00






         TIME SUMMARY AT END OF TIME STEP   17 IN STRESS PERIOD    2
                    SECONDS     MINUTES      HOURS       DAYS        YEARS
                    -----------------------------------------------------------
   TIME STEP LENGTH  86400.      1440.0      24.000      1.0000     2.73785E-03
 STRESS PERIOD TIME 1.46880E+06  24480.      408.00      17.000     4.65435E-02
         TOTAL TIME 1.55520E+06  25920.      432.00      18.000     4.92813E-02
1

 SOLVING FOR HEAD 

 OUTPUT CONTROL FOR STRESS PERIOD    2   TIME STEP   18
    SAVE HEAD FOR ALL LAYERS
    SAVE DRAWDOWN FOR ALL LAYERS
    SAVE BUDGET
    PRINT HEAD FOR ALL LAYERS
    PRINT BUDGET
 UBDSV1 SAVING "         STORAGE" ON UNIT  53 AT TIME STEP 18, STRESS PERIOD   2
 UBDSV2 SAVING "   CONSTANT HEAD" ON UNIT  53 AT TIME STEP 18, STRESS PERIOD   2
 UBDSV1 SAVING "FLOW RIGHT FACE " ON UNIT  53 AT TIME STEP 18, STRESS PERIOD   2
 UBDSV1 SAVING "FLOW FRONT FACE " ON UNIT  53 AT TIME STEP 18, STRESS PERIOD   2
1
              HEAD IN LAYER   1 AT END OF TIME STEP  18 IN STRESS PERIOD    2
  ---------------------------------------------------------------------------

            1           2           3           4           5           6           7           8           9          10
 ........................................................................................................................
   1    9.993       9.161       8.297       7.370       6.360       5.253       4.049       2.759       1.404      1.3903E-02
   2    9.993       9.161       8.297       7.370       6.360       5.253       4.049       2.759       1.404      1.3903E-02
   3    9.993       9.161       8.297       7.370       6.360       5.253       4.049       2.759       1.404      1.3903E-02
   4    9.993       9.161       8.297       7.370       6.360       5.253       4.049       2.759       1.404      1.3903E-02
   5    9.993       9.161       8.297       7.370       6.360       5.253       4.049       2.759       1.404      1.3903E-02
   6    9.993       9.161       8.297       7.370       6.360       5.253       4.049       2.759       1.404      1.3903E-02
   7    9.993       9.161       8.297       7.370       6.360       5.253       4.049       2.759       1.404      1.3903E-02
   8    9.993       9.161       8.297       7.370       6.360       5.253       4.049       2.759       1.404      1.3903E-02
   9    9.993       9.161       8.297       7.370       6.360       5.253       4.049       2.759       1.404      1.3903E-02
  10    9.993       9.161       8.297       7.370       6.360       5.253       4.049       2.759       1.404      1.3903E-02

 HEAD WILL BE SAVED ON UNIT   51 AT END OF TIME STEP   18, STRESS PERIOD    2

 DRAWDOWN WILL BE SAVED ON UNIT   52 AT END OF TIME STEP   18, STRESS PERIOD    2
1
  VOLUMETRIC BUDGET FOR ENTIRE MODEL AT END OF TIME STEP   18, STRESS PERIOD   2
  ------------------------------------------------------------------------------

     CUMULATIVE VOLUMES      L**3       RATES FOR THIS TIME STEP      L**3/T
     ------------------                 ------------------------

           IN:                                      IN:
           ---                                      ---
             STORAGE =       22669.2871               STORAGE =         279.4609
       CONSTANT HEAD =           0.0000         CONSTANT HEAD =           0.0000
               WELLS =           0.0000                 WELLS =           0.0000
     HEAD DEP BOUNDS =        3712.4033       HEAD DEP BOUNDS =         415.6983

            TOTAL IN =       26381.6914              TOTAL IN =         695.1592

          OUT:                                     OUT:
          ----                                     ----
             STORAGE =           0.0000               STORAGE =           0.0000
       CONSTANT HEAD =           0.0000         CONSTANT HEAD =           0.0000
               WELLS =           0.0000                 WELLS =           0.0000
     HEAD DEP BOUNDS =       26381.7070       HEAD DEP BOUNDS =         695.1672

           TOTAL OUT =       26381.7070             TOTAL OUT =         695.1672

            IN - OUT =      -1.5625E-02              IN - OUT =      -7.9956E-03

 PERCENT DISCREPANCY =          -0.00     PERCENT DISCREPANCY =          -0.00






         TIME SUMMARY AT END OF TIME STEP   18 IN STRESS PERIOD    2
                    SECONDS     MINUTES      HOURS       DAYS        YEARS
                    -----------------------------------------------------------
   TIME STEP LENGTH  86400.      1440.0      24.000      1.0000     2.73785E-03
 STRESS PERIOD TIME 1.55520E+06  25920.      432.00      18.000     4.92813E-02
         TOTAL TIME 1.64160E+06  27360.      456.00      19.000     5.20192E-02
1

 SOLVING FOR HEAD 

 OUTPUT CONTROL FOR STRESS PERIOD    2   TIME STEP   19
    SAVE HEAD FOR ALL LAYERS
    SAVE DRAWDOWN FOR ALL LAYERS
    SAVE BUDGET
    PRINT HEAD FOR ALL LAYERS
    PRINT BUDGET
 UBDSV1 SAVING "         STORAGE" ON UNIT  53 AT TIME STEP 19, STRESS PERIOD   2
 UBDSV2 SAVING "   CONSTANT HEAD" ON UNIT  53 AT TIME STEP 19, STRESS PERIOD   2
 UBDSV1 SAVING "FLOW RIGHT FACE " ON UNIT  53 AT TIME STEP 19, STRESS PERIOD   2
 UBDSV1 SAVING "FLOW FRONT FACE " ON UNIT  53 AT TIME STEP 19, STRESS PERIOD   2
1
              HEAD IN LAYER   1 AT END OF TIME STEP  19 IN STRESS PERIOD    2
  ---------------------------------------------------------------------------

            1           2           3           4           5           6           7           8           9          10
 ........................................................................................................................
   1    9.993       9.132       8.241       7.295       6.274       5.167       3.973       2.702       1.373      1.3597E-02
   2    9.993       9.132       8.241       7.295       6.274       5.167       3.973       2.702       1.373      1.3597E-02
   3    9.993       9.132       8.241       7.295       6.274       5.167       3.973       2.702       1.373      1.3597E-02
   4    9.993       9.132       8.241       7.295       6.274       5.167       3.973       2.702       1.373      1.3597E-02
   5    9.993       9.132       8.241       7.295       6.274       5.167       3.973       2.702       1.373      1.3597E-02
   6    9.993       9.132       8.241       7.295       6.274       5.167       3.973       2.702       1.373      1.3597E-02
   7    9.993       9.132       8.241       7.295       6.274       5.167       3.973       2.702       1.373      1.3597E-02
   8    9.993       9.132       8.241       7.295       6.274       5.167       3.973       2.702       1.373      1.3597E-02
   9    9.993       9.132       8.241       7.295       6.274       5.167       3.973       2.702       1.373      1.3597E-02
  10    9.993       9.132       8.241       7.295       6.274       5.167       3.973       2.702       1.373      1.3597E-02

 HEAD WILL BE SAVED ON UNIT   51 AT END OF TIME STEP   19, STRESS PERIOD    2

 DRAWDOWN WILL BE SAVED ON UNIT   52 AT END OF TIME STEP   19, STRESS PERIOD    2
1
  VOLUMETRIC BUDGET FOR ENTIRE MODEL AT END OF TIME STEP   19, STRESS PERIOD   2
  ------------------------------------------------------------------------------

     CUMULATIVE VOLUMES      L**3       RATES FOR THIS TIME STEP      L**3/T
     ------------------                 ------------------------

           IN:                                      IN:
           ---                                      ---
             STORAGE =       22918.7715               STORAGE =         249.4853
       CONSTANT HEAD =           0.0000         CONSTANT HEAD =           0.0000
               WELLS =           0.0000                 WELLS =           0.0000
     HEAD DEP BOUNDS =        4142.7896       HEAD DEP BOUNDS =         430.3864

            TOTAL IN =       27061.5605              TOTAL IN =         679.8716

          OUT:                                     OUT:
          ----                                     ----
             STORAGE =           0.0000               STORAGE =           0.0000
       CONSTANT HEAD =           0.0000         CONSTANT HEAD =           0.0000
               WELLS =           0.0000                 WELLS =           0.0000
     HEAD DEP BOUNDS =       27061.5664       HEAD DEP BOUNDS =         679.8594

           TOTAL OUT =       27061.5664             TOTAL OUT =         679.8594

            IN - OUT =      -5.8594E-03              IN - OUT =       1.2268E-02

 PERCENT DISCREPANCY =          -0.00     PERCENT DISCREPANCY =           0.00






         TIME SUMMARY AT END OF TIME STEP   19 IN STRESS PERIOD    2
                    SECONDS     MINUTES      HOURS       DAYS        YEARS
                    -----------------------------------------------------------
   TIME STEP LENGTH  86400.      1440.0      24.000      1.0000     2.73785E-03
 STRESS PERIOD TIME 1.64160E+06  27360.      456.00      19.000     5.20192E-02
         TOTAL TIME 1.72800E+06  28800.      480.00      20.000     5.47570E-02
1

 SOLVING FOR HEAD 

 OUTPUT CONTROL FOR STRESS PERIOD    2   TIME STEP   20
    SAVE HEAD FOR ALL LAYERS
    SAVE DRAWDOWN FOR ALL LAYERS
    SAVE BUDGET
    PRINT HEAD FOR ALL LAYERS
    PRINT BUDGET
 UBDSV1 SAVING "         STORAGE" ON UNIT  53 AT TIME STEP 20, STRESS PERIOD   2
 UBDSV2 SAVING "   CONSTANT HEAD" ON UNIT  53 AT TIME STEP 20, STRESS PERIOD   2
 UBDSV1 SAVING "FLOW RIGHT FACE " ON UNIT  53 AT TIME STEP 20, STRESS PERIOD   2
 UBDSV1 SAVING "FLOW FRONT FACE " ON UNIT  53 AT TIME STEP 20, STRESS PERIOD   2
1
              HEAD IN LAYER   1 AT END OF TIME STEP  20 IN STRESS PERIOD    2
  ---------------------------------------------------------------------------

            1           2           3           4           5           6           7           8           9          10
 ........................................................................................................................
   1    9.993       9.105       8.192       7.228       6.197       5.089       3.904       2.650       1.346      1.3325E-02
   2    9.993       9.105       8.192       7.228       6.197       5.089       3.904       2.650       1.346      1.3325E-02
   3    9.993       9.105       8.192       7.228       6.197       5.089       3.904       2.650       1.346      1.3325E-02
   4    9.993       9.105       8.192       7.228       6.197       5.089       3.904       2.650       1.346      1.3325E-02
   5    9.993       9.105       8.192       7.228       6.197       5.089       3.904       2.650       1.346      1.3325E-02
   6    9.993       9.105       8.192       7.228       6.197       5.089       3.904       2.650       1.346      1.3325E-02
   7    9.993       9.105       8.192       7.228       6.197       5.089       3.904       2.650       1.346      1.3325E-02
   8    9.993       9.105       8.192       7.228       6.197       5.089       3.904       2.650       1.346      1.3325E-02
   9    9.993       9.105       8.192       7.228       6.197       5.089       3.904       2.650       1.346      1.3325E-02
  10    9.993       9.105       8.192       7.228       6.197       5.089       3.904       2.650       1.346      1.3325E-02

 HEAD WILL BE SAVED ON UNIT   51 AT END OF TIME STEP   20, STRESS PERIOD    2

 DRAWDOWN WILL BE SAVED ON UNIT   52 AT END OF TIME STEP   20, STRESS PERIOD    2
1
  VOLUMETRIC BUDGET FOR ENTIRE MODEL AT END OF TIME STEP   20, STRESS PERIOD   2
  ------------------------------------------------------------------------------

     CUMULATIVE VOLUMES      L**3       RATES FOR THIS TIME STEP      L**3/T
     ------------------                 ------------------------

           IN:                                      IN:
           ---                                      ---
             STORAGE =       23141.4961               STORAGE =         222.7252
       CONSTANT HEAD =           0.0000         CONSTANT HEAD =           0.0000
               WELLS =           0.0000                 WELLS =           0.0000
     HEAD DEP BOUNDS =        4586.3325       HEAD DEP BOUNDS =         443.5429

            TOTAL IN =       27727.8281              TOTAL IN =         666.2681

          OUT:                                     OUT:
          ----                                     ----
             STORAGE =           0.0000               STORAGE =           0.0000
       CONSTANT HEAD =           0.0000         CONSTANT HEAD =           0.0000
               WELLS =           0.0000                 WELLS =           0.0000
     HEAD DEP BOUNDS =       27727.8281       HEAD DEP BOUNDS =         666.2613

           TOTAL OUT =       27727.8281             TOTAL OUT =         666.2613

            IN - OUT =           0.0000              IN - OUT =       6.7749E-03

 PERCENT DISCREPANCY =           0.00     PERCENT DISCREPANCY =           0.00






         TIME SUMMARY AT END OF TIME STEP   20 IN STRESS PERIOD    2
                    SECONDS     MINUTES      HOURS       DAYS        YEARS
                    -----------------------------------------------------------
   TIME STEP LENGTH  86400.      1440.0      24.000      1.0000     2.73785E-03
 STRESS PERIOD TIME 1.72800E+06  28800.      480.00      20.000     5.47570E-02
         TOTAL TIME 1.81440E+06  30240.      504.00      21.000     5.74949E-02
1

 SOLVING FOR HEAD 

 OUTPUT CONTROL FOR STRESS PERIOD    2   TIME STEP   21
    SAVE HEAD FOR ALL LAYERS
    SAVE DRAWDOWN FOR ALL LAYERS
    SAVE BUDGET
    PRINT HEAD FOR ALL LAYERS
    PRINT BUDGET
 UBDSV1 SAVING "         STORAGE" ON UNIT  53 AT TIME STEP 21, STRESS PERIOD   2
 UBDSV2 SAVING "   CONSTANT HEAD" ON UNIT  53 AT TIME STEP 21, STRESS PERIOD   2
 UBDSV1 SAVING "FLOW RIGHT FACE " ON UNIT  53 AT TIME STEP 21, STRESS PERIOD   2
 UBDSV1 SAVING "FLOW FRONT FACE " ON UNIT  53 AT TIME STEP 21, STRESS PERIOD   2
1
              HEAD IN LAYER   1 AT END OF TIME STEP  21 IN STRESS PERIOD    2
  ---------------------------------------------------------------------------

            1           2           3           4           5           6           7           8           9          10
 ........................................................................................................................
   1    9.992       9.082       8.147       7.168       6.128       5.020       3.843       2.605       1.321      1.3083E-02
   2    9.992       9.082       8.147       7.168       6.128       5.020       3.843       2.605       1.321      1.3083E-02
   3    9.992       9.082       8.147       7.168       6.128       5.020       3.843       2.605       1.321      1.3083E-02
   4    9.992       9.082       8.147       7.168       6.128       5.020       3.843       2.605       1.321      1.3083E-02
   5    9.992       9.082       8.147       7.168       6.128       5.020       3.843       2.605       1.321      1.3083E-02
   6    9.992       9.082       8.147       7.168       6.128       5.020       3.843       2.605       1.321      1.3083E-02
   7    9.992       9.082       8.147       7.168       6.128       5.020       3.843       2.605       1.321      1.3083E-02
   8    9.992       9.082       8.147       7.168       6.128       5.020       3.843       2.605       1.321      1.3083E-02
   9    9.992       9.082       8.147       7.168       6.128       5.020       3.843       2.605       1.321      1.3083E-02
  10    9.992       9.082       8.147       7.168       6.128       5.020       3.843       2.605       1.321      1.3083E-02

 HEAD WILL BE SAVED ON UNIT   51 AT END OF TIME STEP   21, STRESS PERIOD    2

 DRAWDOWN WILL BE SAVED ON UNIT   52 AT END OF TIME STEP   21, STRESS PERIOD    2
1
  VOLUMETRIC BUDGET FOR ENTIRE MODEL AT END OF TIME STEP   21, STRESS PERIOD   2
  ------------------------------------------------------------------------------

     CUMULATIVE VOLUMES      L**3       RATES FOR THIS TIME STEP      L**3/T
     ------------------                 ------------------------

           IN:                                      IN:
           ---                                      ---
             STORAGE =       23340.3340               STORAGE =         198.8372
       CONSTANT HEAD =           0.0000         CONSTANT HEAD =           0.0000
               WELLS =           0.0000                 WELLS =           0.0000
     HEAD DEP BOUNDS =        5041.6782       HEAD DEP BOUNDS =         455.3456

            TOTAL IN =       28382.0117              TOTAL IN =         654.1829

          OUT:                                     OUT:
          ----                                     ----
             STORAGE =           0.0000               STORAGE =           0.0000
       CONSTANT HEAD =           0.0000         CONSTANT HEAD =           0.0000
               WELLS =           0.0000                 WELLS =           0.0000
     HEAD DEP BOUNDS =       28381.9961       HEAD DEP BOUNDS =         654.1678

           TOTAL OUT =       28381.9961             TOTAL OUT =         654.1678

            IN - OUT =       1.5625E-02              IN - OUT =       1.5015E-02

 PERCENT DISCREPANCY =           0.00     PERCENT DISCREPANCY =           0.00






         TIME SUMMARY AT END OF TIME STEP   21 IN STRESS PERIOD    2
                    SECONDS     MINUTES      HOURS       DAYS        YEARS
                    -----------------------------------------------------------
   TIME STEP LENGTH  86400.      1440.0      24.000      1.0000     2.73785E-03
 STRESS PERIOD TIME 1.81440E+06  30240.      504.00      21.000     5.74949E-02
         TOTAL TIME 1.90080E+06  31680.      528.00      22.000     6.02327E-02
1

 SOLVING FOR HEAD 

 OUTPUT CONTROL FOR STRESS PERIOD    2   TIME STEP   22
    SAVE HEAD FOR ALL LAYERS
    SAVE DRAWDOWN FOR ALL LAYERS
    SAVE BUDGET
    PRINT HEAD FOR ALL LAYERS
    PRINT BUDGET
 UBDSV1 SAVING "         STORAGE" ON UNIT  53 AT TIME STEP 22, STRESS PERIOD   2
 UBDSV2 SAVING "   CONSTANT HEAD" ON UNIT  53 AT TIME STEP 22, STRESS PERIOD   2
 UBDSV1 SAVING "FLOW RIGHT FACE " ON UNIT  53 AT TIME STEP 22, STRESS PERIOD   2
 UBDSV1 SAVING "FLOW FRONT FACE " ON UNIT  53 AT TIME STEP 22, STRESS PERIOD   2
1
              HEAD IN LAYER   1 AT END OF TIME STEP  22 IN STRESS PERIOD    2
  ---------------------------------------------------------------------------

            1           2           3           4           5           6           7           8           9          10
 ........................................................................................................................
   1    9.992       9.060       8.107       7.114       6.067       4.959       3.789       2.564       1.299      1.2868E-02
   2    9.992       9.060       8.107       7.114       6.067       4.959       3.789       2.564       1.299      1.2868E-02
   3    9.992       9.060       8.107       7.114       6.067       4.959       3.789       2.564       1.299      1.2868E-02
   4    9.992       9.060       8.107       7.114       6.067       4.959       3.789       2.564       1.299      1.2868E-02
   5    9.992       9.060       8.107       7.114       6.067       4.959       3.789       2.564       1.299      1.2868E-02
   6    9.992       9.060       8.107       7.114       6.067       4.959       3.789       2.564       1.299      1.2868E-02
   7    9.992       9.060       8.107       7.114       6.067       4.959       3.789       2.564       1.299      1.2868E-02
   8    9.992       9.060       8.107       7.114       6.067       4.959       3.789       2.564       1.299      1.2868E-02
   9    9.992       9.060       8.107       7.114       6.067       4.959       3.789       2.564       1.299      1.2868E-02
  10    9.992       9.060       8.107       7.114       6.067       4.959       3.789       2.564       1.299      1.2868E-02

 HEAD WILL BE SAVED ON UNIT   51 AT END OF TIME STEP   22, STRESS PERIOD    2

 DRAWDOWN WILL BE SAVED ON UNIT   52 AT END OF TIME STEP   22, STRESS PERIOD    2
1
  VOLUMETRIC BUDGET FOR ENTIRE MODEL AT END OF TIME STEP   22, STRESS PERIOD   2
  ------------------------------------------------------------------------------

     CUMULATIVE VOLUMES      L**3       RATES FOR THIS TIME STEP      L**3/T
     ------------------                 ------------------------

           IN:                                      IN:
           ---                                      ---
             STORAGE =       23517.8438               STORAGE =         177.5104
       CONSTANT HEAD =           0.0000         CONSTANT HEAD =           0.0000
               WELLS =           0.0000                 WELLS =           0.0000
     HEAD DEP BOUNDS =        5507.5654       HEAD DEP BOUNDS =         465.8871

            TOTAL IN =       29025.4102              TOTAL IN =         643.3975

          OUT:                                     OUT:
          ----                                     ----
             STORAGE =           0.0000               STORAGE =           0.0000
       CONSTANT HEAD =           0.0000         CONSTANT HEAD =           0.0000
               WELLS =           0.0000                 WELLS =           0.0000
     HEAD DEP BOUNDS =       29025.3984       HEAD DEP BOUNDS =         643.4028

           TOTAL OUT =       29025.3984             TOTAL OUT =         643.4028

            IN - OUT =       1.1719E-02              IN - OUT =      -5.3101E-03

 PERCENT DISCREPANCY =           0.00     PERCENT DISCREPANCY =          -0.00






         TIME SUMMARY AT END OF TIME STEP   22 IN STRESS PERIOD    2
                    SECONDS     MINUTES      HOURS       DAYS        YEARS
                    -----------------------------------------------------------
   TIME STEP LENGTH  86400.      1440.0      24.000      1.0000     2.73785E-03
 STRESS PERIOD TIME 1.90080E+06  31680.      528.00      22.000     6.02327E-02
         TOTAL TIME 1.98720E+06  33120.      552.00      23.000     6.29706E-02
1

 SOLVING FOR HEAD 

 OUTPUT CONTROL FOR STRESS PERIOD    2   TIME STEP   23
    SAVE HEAD FOR ALL LAYERS
    SAVE DRAWDOWN FOR ALL LAYERS
    SAVE BUDGET
    PRINT HEAD FOR ALL LAYERS
    PRINT BUDGET
 UBDSV1 SAVING "         STORAGE" ON UNIT  53 AT TIME STEP 23, STRESS PERIOD   2
 UBDSV2 SAVING "   CONSTANT HEAD" ON UNIT  53 AT TIME STEP 23, STRESS PERIOD   2
 UBDSV1 SAVING "FLOW RIGHT FACE " ON UNIT  53 AT TIME STEP 23, STRESS PERIOD   2
 UBDSV1 SAVING "FLOW FRONT FACE " ON UNIT  53 AT TIME STEP 23, STRESS PERIOD   2
1
              HEAD IN LAYER   1 AT END OF TIME STEP  23 IN STRESS PERIOD    2
  ---------------------------------------------------------------------------

            1           2           3           4           5           6           7           8           9          10
 ........................................................................................................................
   1    9.992       9.041       8.071       7.066       6.012       4.904       3.740       2.528       1.280      1.2676E-02
   2    9.992       9.041       8.071       7.066       6.012       4.904       3.740       2.528       1.280      1.2676E-02
   3    9.992       9.041       8.071       7.066       6.012       4.904       3.740       2.528       1.280      1.2676E-02
   4    9.992       9.041       8.071       7.066       6.012       4.904       3.740       2.528       1.280      1.2676E-02
   5    9.992       9.041       8.071       7.066       6.012       4.904       3.740       2.528       1.280      1.2676E-02
   6    9.992       9.041       8.071       7.066       6.012       4.904       3.740       2.528       1.280      1.2676E-02
   7    9.992       9.041       8.071       7.066       6.012       4.904       3.740       2.528       1.280      1.2676E-02
   8    9.992       9.041       8.071       7.066       6.012       4.904       3.740       2.528       1.280      1.2676E-02
   9    9.992       9.041       8.071       7.066       6.012       4.904       3.740       2.528       1.280      1.2676E-02
  10    9.992       9.041       8.071       7.066       6.012       4.904       3.740       2.528       1.280      1.2676E-02

 HEAD WILL BE SAVED ON UNIT   51 AT END OF TIME STEP   23, STRESS PERIOD    2

 DRAWDOWN WILL BE SAVED ON UNIT   52 AT END OF TIME STEP   23, STRESS PERIOD    2
1
  VOLUMETRIC BUDGET FOR ENTIRE MODEL AT END OF TIME STEP   23, STRESS PERIOD   2
  ------------------------------------------------------------------------------

     CUMULATIVE VOLUMES      L**3       RATES FOR THIS TIME STEP      L**3/T
     ------------------                 ------------------------

           IN:                                      IN:
           ---                                      ---
             STORAGE =       23676.3164               STORAGE =         158.4720
       CONSTANT HEAD =           0.0000         CONSTANT HEAD =           0.0000
               WELLS =           0.0000                 WELLS =           0.0000
     HEAD DEP BOUNDS =        5982.8926       HEAD DEP BOUNDS =         475.3274

            TOTAL IN =       29659.2090              TOTAL IN =         633.7993

          OUT:                                     OUT:
          ----                                     ----
             STORAGE =           0.0000               STORAGE =           0.0000
       CONSTANT HEAD =           0.0000         CONSTANT HEAD =           0.0000
               WELLS =           0.0000                 WELLS =           0.0000
     HEAD DEP BOUNDS =       29659.2129       HEAD DEP BOUNDS =         633.8139

           TOTAL OUT =       29659.2129             TOTAL OUT =         633.8139

            IN - OUT =      -3.9062E-03              IN - OUT =      -1.4587E-02

 PERCENT DISCREPANCY =          -0.00     PERCENT DISCREPANCY =          -0.00






         TIME SUMMARY AT END OF TIME STEP   23 IN STRESS PERIOD    2
                    SECONDS     MINUTES      HOURS       DAYS        YEARS
                    -----------------------------------------------------------
   TIME STEP LENGTH  86400.      1440.0      24.000      1.0000     2.73785E-03
 STRESS PERIOD TIME 1.98720E+06  33120.      552.00      23.000     6.29706E-02
         TOTAL TIME 2.07360E+06  34560.      576.00      24.000     6.57084E-02
1

 SOLVING FOR HEAD 

 OUTPUT CONTROL FOR STRESS PERIOD    2   TIME STEP   24
    SAVE HEAD FOR ALL LAYERS
    SAVE DRAWDOWN FOR ALL LAYERS
    SAVE BUDGET
    PRINT HEAD FOR ALL LAYERS
    PRINT BUDGET
 UBDSV1 SAVING "         STORAGE" ON UNIT  53 AT TIME STEP 24, STRESS PERIOD   2
 UBDSV2 SAVING "   CONSTANT HEAD" ON UNIT  53 AT TIME STEP 24, STRESS PERIOD   2
 UBDSV1 SAVING "FLOW RIGHT FACE " ON UNIT  53 AT TIME STEP 24, STRESS PERIOD   2
 UBDSV1 SAVING "FLOW FRONT FACE " ON UNIT  53 AT TIME STEP 24, STRESS PERIOD   2
1
              HEAD IN LAYER   1 AT END OF TIME STEP  24 IN STRESS PERIOD    2
  ---------------------------------------------------------------------------

            1           2           3           4           5           6           7           8           9          10
 ........................................................................................................................
   1    9.992       9.024       8.039       7.023       5.963       4.855       3.697       2.496       1.263      1.2505E-02
   2    9.992       9.024       8.039       7.023       5.963       4.855       3.697       2.496       1.263      1.2505E-02
   3    9.992       9.024       8.039       7.023       5.963       4.855       3.697       2.496       1.263      1.2505E-02
   4    9.992       9.024       8.039       7.023       5.963       4.855       3.697       2.496       1.263      1.2505E-02
   5    9.992       9.024       8.039       7.023       5.963       4.855       3.697       2.496       1.263      1.2505E-02
   6    9.992       9.024       8.039       7.023       5.963       4.855       3.697       2.496       1.263      1.2505E-02
   7    9.992       9.024       8.039       7.023       5.963       4.855       3.697       2.496       1.263      1.2505E-02
   8    9.992       9.024       8.039       7.023       5.963       4.855       3.697       2.496       1.263      1.2505E-02
   9    9.992       9.024       8.039       7.023       5.963       4.855       3.697       2.496       1.263      1.2505E-02
  10    9.992       9.024       8.039       7.023       5.963       4.855       3.697       2.496       1.263      1.2505E-02

 HEAD WILL BE SAVED ON UNIT   51 AT END OF TIME STEP   24, STRESS PERIOD    2

 DRAWDOWN WILL BE SAVED ON UNIT   52 AT END OF TIME STEP   24, STRESS PERIOD    2
1
  VOLUMETRIC BUDGET FOR ENTIRE MODEL AT END OF TIME STEP   24, STRESS PERIOD   2
  ------------------------------------------------------------------------------

     CUMULATIVE VOLUMES      L**3       RATES FOR THIS TIME STEP      L**3/T
     ------------------                 ------------------------

           IN:                                      IN:
           ---                                      ---
             STORAGE =       23817.7910               STORAGE =         141.4753
       CONSTANT HEAD =           0.0000         CONSTANT HEAD =           0.0000
               WELLS =           0.0000                 WELLS =           0.0000
     HEAD DEP BOUNDS =        6466.6704       HEAD DEP BOUNDS =         483.7778

            TOTAL IN =       30284.4609              TOTAL IN =         625.2531

          OUT:                                     OUT:
          ----                                     ----
             STORAGE =           0.0000               STORAGE =           0.0000
       CONSTANT HEAD =           0.0000         CONSTANT HEAD =           0.0000
               WELLS =           0.0000                 WELLS =           0.0000
     HEAD DEP BOUNDS =       30284.4805       HEAD DEP BOUNDS =         625.2681

           TOTAL OUT =       30284.4805             TOTAL OUT =         625.2681

            IN - OUT =      -1.9531E-02              IN - OUT =      -1.5015E-02

 PERCENT DISCREPANCY =          -0.00     PERCENT DISCREPANCY =          -0.00






         TIME SUMMARY AT END OF TIME STEP   24 IN STRESS PERIOD    2
                    SECONDS     MINUTES      HOURS       DAYS        YEARS
                    -----------------------------------------------------------
   TIME STEP LENGTH  86400.      1440.0      24.000      1.0000     2.73785E-03
 STRESS PERIOD TIME 2.07360E+06  34560.      576.00      24.000     6.57084E-02
         TOTAL TIME 2.16000E+06  36000.      600.00      25.000     6.84463E-02
1

 SOLVING FOR HEAD 

 OUTPUT CONTROL FOR STRESS PERIOD    2   TIME STEP   25
    SAVE HEAD FOR ALL LAYERS
    SAVE DRAWDOWN FOR ALL LAYERS
    SAVE BUDGET
    PRINT HEAD FOR ALL LAYERS
    PRINT BUDGET
 UBDSV1 SAVING "         STORAGE" ON UNIT  53 AT TIME STEP 25, STRESS PERIOD   2
 UBDSV2 SAVING "   CONSTANT HEAD" ON UNIT  53 AT TIME STEP 25, STRESS PERIOD   2
 UBDSV1 SAVING "FLOW RIGHT FACE " ON UNIT  53 AT TIME STEP 25, STRESS PERIOD   2
 UBDSV1 SAVING "FLOW FRONT FACE " ON UNIT  53 AT TIME STEP 25, STRESS PERIOD   2
1
              HEAD IN LAYER   1 AT END OF TIME STEP  25 IN STRESS PERIOD    2
  ---------------------------------------------------------------------------

            1           2           3           4           5           6           7           8           9          10
 ........................................................................................................................
   1    9.992       9.009       8.011       6.984       5.919       4.811       3.658       2.467       1.247      1.2353E-02
   2    9.992       9.009       8.011       6.984       5.919       4.811       3.658       2.467       1.247      1.2353E-02
   3    9.992       9.009       8.011       6.984       5.919       4.811       3.658       2.467       1.247      1.2353E-02
   4    9.992       9.009       8.011       6.984       5.919       4.811       3.658       2.467       1.247      1.2353E-02
   5    9.992       9.009       8.011       6.984       5.919       4.811       3.658       2.467       1.247      1.2353E-02
   6    9.992       9.009       8.011       6.984       5.919       4.811       3.658       2.467       1.247      1.2353E-02
   7    9.992       9.009       8.011       6.984       5.919       4.811       3.658       2.467       1.247      1.2353E-02
   8    9.992       9.009       8.011       6.984       5.919       4.811       3.658       2.467       1.247      1.2353E-02
   9    9.992       9.009       8.011       6.984       5.919       4.811       3.658       2.467       1.247      1.2353E-02
  10    9.992       9.009       8.011       6.984       5.919       4.811       3.658       2.467       1.247      1.2353E-02

 HEAD WILL BE SAVED ON UNIT   51 AT END OF TIME STEP   25, STRESS PERIOD    2

 DRAWDOWN WILL BE SAVED ON UNIT   52 AT END OF TIME STEP   25, STRESS PERIOD    2
1
  VOLUMETRIC BUDGET FOR ENTIRE MODEL AT END OF TIME STEP   25, STRESS PERIOD   2
  ------------------------------------------------------------------------------

     CUMULATIVE VOLUMES      L**3       RATES FOR THIS TIME STEP      L**3/T
     ------------------                 ------------------------

           IN:                                      IN:
           ---                                      ---
             STORAGE =       23944.0918               STORAGE =         126.3002
       CONSTANT HEAD =           0.0000         CONSTANT HEAD =           0.0000
               WELLS =           0.0000                 WELLS =           0.0000
     HEAD DEP BOUNDS =        6958.0103       HEAD DEP BOUNDS =         491.3397

            TOTAL IN =       30902.1016              TOTAL IN =         617.6399

          OUT:                                     OUT:
          ----                                     ----
             STORAGE =           0.0000               STORAGE =           0.0000
       CONSTANT HEAD =           0.0000         CONSTANT HEAD =           0.0000
               WELLS =           0.0000                 WELLS =           0.0000
     HEAD DEP BOUNDS =       30902.1289       HEAD DEP BOUNDS =         617.6487

           TOTAL OUT =       30902.1289             TOTAL OUT =         617.6487

            IN - OUT =      -2.7344E-02              IN - OUT =      -8.7891E-03

 PERCENT DISCREPANCY =          -0.00     PERCENT DISCREPANCY =          -0.00






         TIME SUMMARY AT END OF TIME STEP   25 IN STRESS PERIOD    2
                    SECONDS     MINUTES      HOURS       DAYS        YEARS
                    -----------------------------------------------------------
   TIME STEP LENGTH  86400.      1440.0      24.000      1.0000     2.73785E-03
 STRESS PERIOD TIME 2.16000E+06  36000.      600.00      25.000     6.84463E-02
         TOTAL TIME 2.24640E+06  37440.      624.00      26.000     7.11841E-02
1

 SOLVING FOR HEAD 

 OUTPUT CONTROL FOR STRESS PERIOD    2   TIME STEP   26
    SAVE HEAD FOR ALL LAYERS
    SAVE DRAWDOWN FOR ALL LAYERS
    SAVE BUDGET
    PRINT HEAD FOR ALL LAYERS
    PRINT BUDGET
 UBDSV1 SAVING "         STORAGE" ON UNIT  53 AT TIME STEP 26, STRESS PERIOD   2
 UBDSV2 SAVING "   CONSTANT HEAD" ON UNIT  53 AT TIME STEP 26, STRESS PERIOD   2
 UBDSV1 SAVING "FLOW RIGHT FACE " ON UNIT  53 AT TIME STEP 26, STRESS PERIOD   2
 UBDSV1 SAVING "FLOW FRONT FACE " ON UNIT  53 AT TIME STEP 26, STRESS PERIOD   2
1
              HEAD IN LAYER   1 AT END OF TIME STEP  26 IN STRESS PERIOD    2
  ---------------------------------------------------------------------------

            1           2           3           4           5           6           7           8           9          10
 ........................................................................................................................
   1    9.992       8.995       7.985       6.950       5.880       4.772       3.624       2.442       1.234      1.2217E-02
   2    9.992       8.995       7.985       6.950       5.880       4.772       3.624       2.442       1.234      1.2217E-02
   3    9.992       8.995       7.985       6.950       5.880       4.772       3.624       2.442       1.234      1.2217E-02
   4    9.992       8.995       7.985       6.950       5.880       4.772       3.624       2.442       1.234      1.2217E-02
   5    9.992       8.995       7.985       6.950       5.880       4.772       3.624       2.442       1.234      1.2217E-02
   6    9.992       8.995       7.985       6.950       5.880       4.772       3.624       2.442       1.234      1.2217E-02
   7    9.992       8.995       7.985       6.950       5.880       4.772       3.624       2.442       1.234      1.2217E-02
   8    9.992       8.995       7.985       6.950       5.880       4.772       3.624       2.442       1.234      1.2217E-02
   9    9.992       8.995       7.985       6.950       5.880       4.772       3.624       2.442       1.234      1.2217E-02
  10    9.992       8.995       7.985       6.950       5.880       4.772       3.624       2.442       1.234      1.2217E-02

 HEAD WILL BE SAVED ON UNIT   51 AT END OF TIME STEP   26, STRESS PERIOD    2

 DRAWDOWN WILL BE SAVED ON UNIT   52 AT END OF TIME STEP   26, STRESS PERIOD    2
1
  VOLUMETRIC BUDGET FOR ENTIRE MODEL AT END OF TIME STEP   26, STRESS PERIOD   2
  ------------------------------------------------------------------------------

     CUMULATIVE VOLUMES      L**3       RATES FOR THIS TIME STEP      L**3/T
     ------------------                 ------------------------

           IN:                                      IN:
           ---                                      ---
             STORAGE =       24056.8477               STORAGE =         112.7551
       CONSTANT HEAD =           0.0000         CONSTANT HEAD =           0.0000
               WELLS =           0.0000                 WELLS =           0.0000
     HEAD DEP BOUNDS =        7456.1157       HEAD DEP BOUNDS =         498.1056

            TOTAL IN =       31512.9629              TOTAL IN =         610.8607

          OUT:                                     OUT:
          ----                                     ----
             STORAGE =           0.0000               STORAGE =           0.0000
       CONSTANT HEAD =           0.0000         CONSTANT HEAD =           0.0000
               WELLS =           0.0000                 WELLS =           0.0000
     HEAD DEP BOUNDS =       31512.9824       HEAD DEP BOUNDS =         610.8533

           TOTAL OUT =       31512.9824             TOTAL OUT =         610.8533

            IN - OUT =      -1.9531E-02              IN - OUT =       7.3853E-03

 PERCENT DISCREPANCY =          -0.00     PERCENT DISCREPANCY =           0.00






         TIME SUMMARY AT END OF TIME STEP   26 IN STRESS PERIOD    2
                    SECONDS     MINUTES      HOURS       DAYS        YEARS
                    -----------------------------------------------------------
   TIME STEP LENGTH  86400.      1440.0      24.000      1.0000     2.73785E-03
 STRESS PERIOD TIME 2.24640E+06  37440.      624.00      26.000     7.11841E-02
         TOTAL TIME 2.33280E+06  38880.      648.00      27.000     7.39220E-02
1

 SOLVING FOR HEAD 

 OUTPUT CONTROL FOR STRESS PERIOD    2   TIME STEP   27
    SAVE HEAD FOR ALL LAYERS
    SAVE DRAWDOWN FOR ALL LAYERS
    SAVE BUDGET
    PRINT HEAD FOR ALL LAYERS
    PRINT BUDGET
 UBDSV1 SAVING "         STORAGE" ON UNIT  53 AT TIME STEP 27, STRESS PERIOD   2
 UBDSV2 SAVING "   CONSTANT HEAD" ON UNIT  53 AT TIME STEP 27, STRESS PERIOD   2
 UBDSV1 SAVING "FLOW RIGHT FACE " ON UNIT  53 AT TIME STEP 27, STRESS PERIOD   2
 UBDSV1 SAVING "FLOW FRONT FACE " ON UNIT  53 AT TIME STEP 27, STRESS PERIOD   2
1
              HEAD IN LAYER   1 AT END OF TIME STEP  27 IN STRESS PERIOD    2
  ---------------------------------------------------------------------------

            1           2           3           4           5           6           7           8           9          10
 ........................................................................................................................
   1    9.992       8.983       7.963       6.919       5.846       4.737       3.593       2.419       1.222      1.2096E-02
   2    9.992       8.983       7.963       6.919       5.846       4.737       3.593       2.419       1.222      1.2096E-02
   3    9.992       8.983       7.963       6.919       5.846       4.737       3.593       2.419       1.222      1.2096E-02
   4    9.992       8.983       7.963       6.919       5.846       4.737       3.593       2.419       1.222      1.2096E-02
   5    9.992       8.983       7.963       6.919       5.846       4.737       3.593       2.419       1.222      1.2096E-02
   6    9.992       8.983       7.963       6.919       5.846       4.737       3.593       2.419       1.222      1.2096E-02
   7    9.992       8.983       7.963       6.919       5.846       4.737       3.593       2.419       1.222      1.2096E-02
   8    9.992       8.983       7.963       6.919       5.846       4.737       3.593       2.419       1.222      1.2096E-02
   9    9.992       8.983       7.963       6.919       5.846       4.737       3.593       2.419       1.222      1.2096E-02
  10    9.992       8.983       7.963       6.919       5.846       4.737       3.593       2.419       1.222      1.2096E-02

 HEAD WILL BE SAVED ON UNIT   51 AT END OF TIME STEP   27, STRESS PERIOD    2

 DRAWDOWN WILL BE SAVED ON UNIT   52 AT END OF TIME STEP   27, STRESS PERIOD    2
1
  VOLUMETRIC BUDGET FOR ENTIRE MODEL AT END OF TIME STEP   27, STRESS PERIOD   2
  ------------------------------------------------------------------------------

     CUMULATIVE VOLUMES      L**3       RATES FOR THIS TIME STEP      L**3/T
     ------------------                 ------------------------

           IN:                                      IN:
           ---                                      ---
             STORAGE =       24157.5078               STORAGE =         100.6606
       CONSTANT HEAD =           0.0000         CONSTANT HEAD =           0.0000
               WELLS =           0.0000                 WELLS =           0.0000
     HEAD DEP BOUNDS =        7960.2358       HEAD DEP BOUNDS =         504.1201

            TOTAL IN =       32117.7441              TOTAL IN =         604.7807

          OUT:                                     OUT:
          ----                                     ----
             STORAGE =           0.0000               STORAGE =           0.0000
       CONSTANT HEAD =           0.0000         CONSTANT HEAD =           0.0000
               WELLS =           0.0000                 WELLS =           0.0000
     HEAD DEP BOUNDS =       32117.7734       HEAD DEP BOUNDS =         604.7914

           TOTAL OUT =       32117.7734             TOTAL OUT =         604.7914

            IN - OUT =      -2.9297E-02              IN - OUT =      -1.0681E-02

 PERCENT DISCREPANCY =          -0.00     PERCENT DISCREPANCY =          -0.00






         TIME SUMMARY AT END OF TIME STEP   27 IN STRESS PERIOD    2
                    SECONDS     MINUTES      HOURS       DAYS        YEARS
                    -----------------------------------------------------------
   TIME STEP LENGTH  86400.      1440.0      24.000      1.0000     2.73785E-03
 STRESS PERIOD TIME 2.33280E+06  38880.      648.00      27.000     7.39220E-02
         TOTAL TIME 2.41920E+06  40320.      672.00      28.000     7.66598E-02
1

 SOLVING FOR HEAD 

 OUTPUT CONTROL FOR STRESS PERIOD    2   TIME STEP   28
    SAVE HEAD FOR ALL LAYERS
    SAVE DRAWDOWN FOR ALL LAYERS
    SAVE BUDGET
    PRINT HEAD FOR ALL LAYERS
    PRINT BUDGET
 UBDSV1 SAVING "         STORAGE" ON UNIT  53 AT TIME STEP 28, STRESS PERIOD   2
 UBDSV2 SAVING "   CONSTANT HEAD" ON UNIT  53 AT TIME STEP 28, STRESS PERIOD   2
 UBDSV1 SAVING "FLOW RIGHT FACE " ON UNIT  53 AT TIME STEP 28, STRESS PERIOD   2
 UBDSV1 SAVING "FLOW FRONT FACE " ON UNIT  53 AT TIME STEP 28, STRESS PERIOD   2
1
              HEAD IN LAYER   1 AT END OF TIME STEP  28 IN STRESS PERIOD    2
  ---------------------------------------------------------------------------

            1           2           3           4           5           6           7           8           9          10
 ........................................................................................................................
   1    9.992       8.972       7.942       6.892       5.814       4.706       3.566       2.398       1.211      1.1988E-02
   2    9.992       8.972       7.942       6.892       5.814       4.706       3.566       2.398       1.211      1.1988E-02
   3    9.992       8.972       7.942       6.892       5.814       4.706       3.566       2.398       1.211      1.1988E-02
   4    9.992       8.972       7.942       6.892       5.814       4.706       3.566       2.398       1.211      1.1988E-02
   5    9.992       8.972       7.942       6.892       5.814       4.706       3.566       2.398       1.211      1.1988E-02
   6    9.992       8.972       7.942       6.892       5.814       4.706       3.566       2.398       1.211      1.1988E-02
   7    9.992       8.972       7.942       6.892       5.814       4.706       3.566       2.398       1.211      1.1988E-02
   8    9.992       8.972       7.942       6.892       5.814       4.706       3.566       2.398       1.211      1.1988E-02
   9    9.992       8.972       7.942       6.892       5.814       4.706       3.566       2.398       1.211      1.1988E-02
  10    9.992       8.972       7.942       6.892       5.814       4.706       3.566       2.398       1.211      1.1988E-02

 HEAD WILL BE SAVED ON UNIT   51 AT END OF TIME STEP   28, STRESS PERIOD    2

 DRAWDOWN WILL BE SAVED ON UNIT   52 AT END OF TIME STEP   28, STRESS PERIOD    2
1
  VOLUMETRIC BUDGET FOR ENTIRE MODEL AT END OF TIME STEP   28, STRESS PERIOD   2
  ------------------------------------------------------------------------------

     CUMULATIVE VOLUMES      L**3       RATES FOR THIS TIME STEP      L**3/T
     ------------------                 ------------------------

           IN:                                      IN:
           ---                                      ---
             STORAGE =       24247.3730               STORAGE =          89.8653
       CONSTANT HEAD =           0.0000         CONSTANT HEAD =           0.0000
               WELLS =           0.0000                 WELLS =           0.0000
     HEAD DEP BOUNDS =        8469.7715       HEAD DEP BOUNDS =         509.5352

            TOTAL IN =       32717.1445              TOTAL IN =         599.4005

          OUT:                                     OUT:
          ----                                     ----
             STORAGE =           0.0000               STORAGE =           0.0000
       CONSTANT HEAD =           0.0000         CONSTANT HEAD =           0.0000
               WELLS =           0.0000                 WELLS =           0.0000
     HEAD DEP BOUNDS =       32717.1562       HEAD DEP BOUNDS =         599.3828

           TOTAL OUT =       32717.1562             TOTAL OUT =         599.3828

            IN - OUT =      -1.1719E-02              IN - OUT =       1.7700E-02

 PERCENT DISCREPANCY =          -0.00     PERCENT DISCREPANCY =           0.00






         TIME SUMMARY AT END OF TIME STEP   28 IN STRESS PERIOD    2
                    SECONDS     MINUTES      HOURS       DAYS        YEARS
                    -----------------------------------------------------------
   TIME STEP LENGTH  86400.      1440.0      24.000      1.0000     2.73785E-03
 STRESS PERIOD TIME 2.41920E+06  40320.      672.00      28.000     7.66598E-02
         TOTAL TIME 2.50560E+06  41760.      696.00      29.000     7.93977E-02
1

 SOLVING FOR HEAD 

 OUTPUT CONTROL FOR STRESS PERIOD    2   TIME STEP   29
    SAVE HEAD FOR ALL LAYERS
    SAVE DRAWDOWN FOR ALL LAYERS
    SAVE BUDGET
    PRINT HEAD FOR ALL LAYERS
    PRINT BUDGET
 UBDSV1 SAVING "         STORAGE" ON UNIT  53 AT TIME STEP 29, STRESS PERIOD   2
 UBDSV2 SAVING "   CONSTANT HEAD" ON UNIT  53 AT TIME STEP 29, STRESS PERIOD   2
 UBDSV1 SAVING "FLOW RIGHT FACE " ON UNIT  53 AT TIME STEP 29, STRESS PERIOD   2
 UBDSV1 SAVING "FLOW FRONT FACE " ON UNIT  53 AT TIME STEP 29, STRESS PERIOD   2
1
              HEAD IN LAYER   1 AT END OF TIME STEP  29 IN STRESS PERIOD    2
  ---------------------------------------------------------------------------

            1           2           3           4           5           6           7           8           9          10
 ........................................................................................................................
   1    9.991       8.963       7.924       6.868       5.787       4.678       3.541       2.380       1.201      1.1891E-02
   2    9.991       8.963       7.924       6.868       5.787       4.678       3.541       2.380       1.201      1.1891E-02
   3    9.991       8.963       7.924       6.868       5.787       4.678       3.541       2.380       1.201      1.1891E-02
   4    9.991       8.963       7.924       6.868       5.787       4.678       3.541       2.380       1.201      1.1891E-02
   5    9.991       8.963       7.924       6.868       5.787       4.678       3.541       2.380       1.201      1.1891E-02
   6    9.991       8.963       7.924       6.868       5.787       4.678       3.541       2.380       1.201      1.1891E-02
   7    9.991       8.963       7.924       6.868       5.787       4.678       3.541       2.380       1.201      1.1891E-02
   8    9.991       8.963       7.924       6.868       5.787       4.678       3.541       2.380       1.201      1.1891E-02
   9    9.991       8.963       7.924       6.868       5.787       4.678       3.541       2.380       1.201      1.1891E-02
  10    9.991       8.963       7.924       6.868       5.787       4.678       3.541       2.380       1.201      1.1891E-02

 HEAD WILL BE SAVED ON UNIT   51 AT END OF TIME STEP   29, STRESS PERIOD    2

 DRAWDOWN WILL BE SAVED ON UNIT   52 AT END OF TIME STEP   29, STRESS PERIOD    2
1
  VOLUMETRIC BUDGET FOR ENTIRE MODEL AT END OF TIME STEP   29, STRESS PERIOD   2
  ------------------------------------------------------------------------------

     CUMULATIVE VOLUMES      L**3       RATES FOR THIS TIME STEP      L**3/T
     ------------------                 ------------------------

           IN:                                      IN:
           ---                                      ---
             STORAGE =       24327.5996               STORAGE =          80.2260
       CONSTANT HEAD =           0.0000         CONSTANT HEAD =           0.0000
               WELLS =           0.0000                 WELLS =           0.0000
     HEAD DEP BOUNDS =        8984.1133       HEAD DEP BOUNDS =         514.3414

            TOTAL IN =       33311.7109              TOTAL IN =         594.5674

          OUT:                                     OUT:
          ----                                     ----
             STORAGE =           0.0000               STORAGE =           0.0000
       CONSTANT HEAD =           0.0000         CONSTANT HEAD =           0.0000
               WELLS =           0.0000                 WELLS =           0.0000
     HEAD DEP BOUNDS =       33311.7109       HEAD DEP BOUNDS =         594.5564

           TOTAL OUT =       33311.7109             TOTAL OUT =         594.5564

            IN - OUT =           0.0000              IN - OUT =       1.1047E-02

 PERCENT DISCREPANCY =           0.00     PERCENT DISCREPANCY =           0.00






         TIME SUMMARY AT END OF TIME STEP   29 IN STRESS PERIOD    2
                    SECONDS     MINUTES      HOURS       DAYS        YEARS
                    -----------------------------------------------------------
   TIME STEP LENGTH  86400.      1440.0      24.000      1.0000     2.73785E-03
 STRESS PERIOD TIME 2.50560E+06  41760.      696.00      29.000     7.93977E-02
         TOTAL TIME 2.59200E+06  43200.      720.00      30.000     8.21355E-02
1

 SOLVING FOR HEAD 

 OUTPUT CONTROL FOR STRESS PERIOD    2   TIME STEP   30
    SAVE HEAD FOR ALL LAYERS
    SAVE DRAWDOWN FOR ALL LAYERS
    SAVE BUDGET
    PRINT HEAD FOR ALL LAYERS
    PRINT BUDGET
 UBDSV1 SAVING "         STORAGE" ON UNIT  53 AT TIME STEP 30, STRESS PERIOD   2
 UBDSV2 SAVING "   CONSTANT HEAD" ON UNIT  53 AT TIME STEP 30, STRESS PERIOD   2
 UBDSV1 SAVING "FLOW RIGHT FACE " ON UNIT  53 AT TIME STEP 30, STRESS PERIOD   2
 UBDSV1 SAVING "FLOW FRONT FACE " ON UNIT  53 AT TIME STEP 30, STRESS PERIOD   2
1
              HEAD IN LAYER   1 AT END OF TIME STEP  30 IN STRESS PERIOD    2
  ---------------------------------------------------------------------------

            1           2           3           4           5           6           7           8           9          10
 ........................................................................................................................
   1    9.991       8.954       7.908       6.846       5.762       4.653       3.519       2.364       1.192      1.1805E-02
   2    9.991       8.954       7.908       6.846       5.762       4.653       3.519       2.364       1.192      1.1805E-02
   3    9.991       8.954       7.908       6.846       5.762       4.653       3.519       2.364       1.192      1.1805E-02
   4    9.991       8.954       7.908       6.846       5.762       4.653       3.519       2.364       1.192      1.1805E-02
   5    9.991       8.954       7.908       6.846       5.762       4.653       3.519       2.364       1.192      1.1805E-02
   6    9.991       8.954       7.908       6.846       5.762       4.653       3.519       2.364       1.192      1.1805E-02
   7    9.991       8.954       7.908       6.846       5.762       4.653       3.519       2.364       1.192      1.1805E-02
   8    9.991       8.954       7.908       6.846       5.762       4.653       3.519       2.364       1.192      1.1805E-02
   9    9.991       8.954       7.908       6.846       5.762       4.653       3.519       2.364       1.192      1.1805E-02
  10    9.991       8.954       7.908       6.846       5.762       4.653       3.519       2.364       1.192      1.1805E-02

 HEAD WILL BE SAVED ON UNIT   51 AT END OF TIME STEP   30, STRESS PERIOD    2

 DRAWDOWN WILL BE SAVED ON UNIT   52 AT END OF TIME STEP   30, STRESS PERIOD    2
1
  VOLUMETRIC BUDGET FOR ENTIRE MODEL AT END OF TIME STEP   30, STRESS PERIOD   2
  ------------------------------------------------------------------------------

     CUMULATIVE VOLUMES      L**3       RATES FOR THIS TIME STEP      L**3/T
     ------------------                 ------------------------

           IN:                                      IN:
           ---                                      ---
             STORAGE =       24399.2207               STORAGE =          71.6219
       CONSTANT HEAD =           0.0000         CONSTANT HEAD =           0.0000
               WELLS =           0.0000                 WELLS =           0.0000
     HEAD DEP BOUNDS =        9502.7510       HEAD DEP BOUNDS =         518.6376

            TOTAL IN =       33901.9727              TOTAL IN =         590.2595

          OUT:                                     OUT:
          ----                                     ----
             STORAGE =           0.0000               STORAGE =           0.0000
       CONSTANT HEAD =           0.0000         CONSTANT HEAD =           0.0000
               WELLS =           0.0000                 WELLS =           0.0000
     HEAD DEP BOUNDS =       33901.9609       HEAD DEP BOUNDS =         590.2491

           TOTAL OUT =       33901.9609             TOTAL OUT =         590.2491

            IN - OUT =       1.1719E-02              IN - OUT =       1.0437E-02

 PERCENT DISCREPANCY =           0.00     PERCENT DISCREPANCY =           0.00






         TIME SUMMARY AT END OF TIME STEP   30 IN STRESS PERIOD    2
                    SECONDS     MINUTES      HOURS       DAYS        YEARS
                    -----------------------------------------------------------
   TIME STEP LENGTH  86400.      1440.0      24.000      1.0000     2.73785E-03
 STRESS PERIOD TIME 2.59200E+06  43200.      720.00      30.000     8.21355E-02
         TOTAL TIME 2.67840E+06  44640.      744.00      31.000     8.48734E-02
1

 SOLVING FOR HEAD 

 OUTPUT CONTROL FOR STRESS PERIOD    2   TIME STEP   31
    SAVE HEAD FOR ALL LAYERS
    SAVE DRAWDOWN FOR ALL LAYERS
    SAVE BUDGET
    PRINT HEAD FOR ALL LAYERS
    PRINT BUDGET
 UBDSV1 SAVING "         STORAGE" ON UNIT  53 AT TIME STEP 31, STRESS PERIOD   2
 UBDSV2 SAVING "   CONSTANT HEAD" ON UNIT  53 AT TIME STEP 31, STRESS PERIOD   2
 UBDSV1 SAVING "FLOW RIGHT FACE " ON UNIT  53 AT TIME STEP 31, STRESS PERIOD   2
 UBDSV1 SAVING "FLOW FRONT FACE " ON UNIT  53 AT TIME STEP 31, STRESS PERIOD   2
1
              HEAD IN LAYER   1 AT END OF TIME STEP  31 IN STRESS PERIOD    2
  ---------------------------------------------------------------------------

            1           2           3           4           5           6           7           8           9          10
 ........................................................................................................................
   1    9.991       8.946       7.894       6.826       5.740       4.631       3.500       2.349       1.184      1.1728E-02
   2    9.991       8.946       7.894       6.826       5.740       4.631       3.500       2.349       1.184      1.1728E-02
   3    9.991       8.946       7.894       6.826       5.740       4.631       3.500       2.349       1.184      1.1728E-02
   4    9.991       8.946       7.894       6.826       5.740       4.631       3.500       2.349       1.184      1.1728E-02
   5    9.991       8.946       7.894       6.826       5.740       4.631       3.500       2.349       1.184      1.1728E-02
   6    9.991       8.946       7.894       6.826       5.740       4.631       3.500       2.349       1.184      1.1728E-02
   7    9.991       8.946       7.894       6.826       5.740       4.631       3.500       2.349       1.184      1.1728E-02
   8    9.991       8.946       7.894       6.826       5.740       4.631       3.500       2.349       1.184      1.1728E-02
   9    9.991       8.946       7.894       6.826       5.740       4.631       3.500       2.349       1.184      1.1728E-02
  10    9.991       8.946       7.894       6.826       5.740       4.631       3.500       2.349       1.184      1.1728E-02

 HEAD WILL BE SAVED ON UNIT   51 AT END OF TIME STEP   31, STRESS PERIOD    2

 DRAWDOWN WILL BE SAVED ON UNIT   52 AT END OF TIME STEP   31, STRESS PERIOD    2
1
  VOLUMETRIC BUDGET FOR ENTIRE MODEL AT END OF TIME STEP   31, STRESS PERIOD   2
  ------------------------------------------------------------------------------

     CUMULATIVE VOLUMES      L**3       RATES FOR THIS TIME STEP      L**3/T
     ------------------                 ------------------------

           IN:                                      IN:
           ---                                      ---
             STORAGE =       24463.1602               STORAGE =          63.9402
       CONSTANT HEAD =           0.0000         CONSTANT HEAD =           0.0000
               WELLS =           0.0000                 WELLS =           0.0000
     HEAD DEP BOUNDS =       10025.2295       HEAD DEP BOUNDS =         522.4783

            TOTAL IN =       34488.3906              TOTAL IN =         586.4185

          OUT:                                     OUT:
          ----                                     ----
             STORAGE =           0.0000               STORAGE =           0.0000
       CONSTANT HEAD =           0.0000         CONSTANT HEAD =           0.0000
               WELLS =           0.0000                 WELLS =           0.0000
     HEAD DEP BOUNDS =       34488.3672       HEAD DEP BOUNDS =         586.4048

           TOTAL OUT =       34488.3672             TOTAL OUT =         586.4048

            IN - OUT =       2.3438E-02              IN - OUT =       1.3672E-02

 PERCENT DISCREPANCY =           0.00     PERCENT DISCREPANCY =           0.00






         TIME SUMMARY AT END OF TIME STEP   31 IN STRESS PERIOD    2
                    SECONDS     MINUTES      HOURS       DAYS        YEARS
                    -----------------------------------------------------------
   TIME STEP LENGTH  86400.      1440.0      24.000      1.0000     2.73785E-03
 STRESS PERIOD TIME 2.67840E+06  44640.      744.00      31.000     8.48734E-02
         TOTAL TIME 2.76480E+06  46080.      768.00      32.000     8.76112E-02
1

 SOLVING FOR HEAD 

 OUTPUT CONTROL FOR STRESS PERIOD    2   TIME STEP   32
    SAVE HEAD FOR ALL LAYERS
    SAVE DRAWDOWN FOR ALL LAYERS
    SAVE BUDGET
    PRINT HEAD FOR ALL LAYERS
    PRINT BUDGET
 UBDSV1 SAVING "         STORAGE" ON UNIT  53 AT TIME STEP 32, STRESS PERIOD   2
 UBDSV2 SAVING "   CONSTANT HEAD" ON UNIT  53 AT TIME STEP 32, STRESS PERIOD   2
 UBDSV1 SAVING "FLOW RIGHT FACE " ON UNIT  53 AT TIME STEP 32, STRESS PERIOD   2
 UBDSV1 SAVING "FLOW FRONT FACE " ON UNIT  53 AT TIME STEP 32, STRESS PERIOD   2
1
              HEAD IN LAYER   1 AT END OF TIME STEP  32 IN STRESS PERIOD    2
  ---------------------------------------------------------------------------

            1           2           3           4           5           6           7           8           9          10
 ........................................................................................................................
   1    9.991       8.939       7.881       6.809       5.720       4.611       3.483       2.336       1.178      1.1659E-02
   2    9.991       8.939       7.881       6.809       5.720       4.611       3.483       2.336       1.178      1.1659E-02
   3    9.991       8.939       7.881       6.809       5.720       4.611       3.483       2.336       1.178      1.1659E-02
   4    9.991       8.939       7.881       6.809       5.720       4.611       3.483       2.336       1.178      1.1659E-02
   5    9.991       8.939       7.881       6.809       5.720       4.611       3.483       2.336       1.178      1.1659E-02
   6    9.991       8.939       7.881       6.809       5.720       4.611       3.483       2.336       1.178      1.1659E-02
   7    9.991       8.939       7.881       6.809       5.720       4.611       3.483       2.336       1.178      1.1659E-02
   8    9.991       8.939       7.881       6.809       5.720       4.611       3.483       2.336       1.178      1.1659E-02
   9    9.991       8.939       7.881       6.809       5.720       4.611       3.483       2.336       1.178      1.1659E-02
  10    9.991       8.939       7.881       6.809       5.720       4.611       3.483       2.336       1.178      1.1659E-02

 HEAD WILL BE SAVED ON UNIT   51 AT END OF TIME STEP   32, STRESS PERIOD    2

 DRAWDOWN WILL BE SAVED ON UNIT   52 AT END OF TIME STEP   32, STRESS PERIOD    2
1
  VOLUMETRIC BUDGET FOR ENTIRE MODEL AT END OF TIME STEP   32, STRESS PERIOD   2
  ------------------------------------------------------------------------------

     CUMULATIVE VOLUMES      L**3       RATES FOR THIS TIME STEP      L**3/T
     ------------------                 ------------------------

           IN:                                      IN:
           ---                                      ---
             STORAGE =       24520.2422               STORAGE =          57.0819
       CONSTANT HEAD =           0.0000         CONSTANT HEAD =           0.0000
               WELLS =           0.0000                 WELLS =           0.0000
     HEAD DEP BOUNDS =       10551.1025       HEAD DEP BOUNDS =         525.8733

            TOTAL IN =       35071.3438              TOTAL IN =         582.9552

          OUT:                                     OUT:
          ----                                     ----
             STORAGE =           0.0000               STORAGE =           0.0000
       CONSTANT HEAD =           0.0000         CONSTANT HEAD =           0.0000
               WELLS =           0.0000                 WELLS =           0.0000
     HEAD DEP BOUNDS =       35071.3398       HEAD DEP BOUNDS =         582.9735

           TOTAL OUT =       35071.3398             TOTAL OUT =         582.9735

            IN - OUT =       3.9062E-03              IN - OUT =      -1.8311E-02

 PERCENT DISCREPANCY =           0.00     PERCENT DISCREPANCY =          -0.00






         TIME SUMMARY AT END OF TIME STEP   32 IN STRESS PERIOD    2
                    SECONDS     MINUTES      HOURS       DAYS        YEARS
                    -----------------------------------------------------------
   TIME STEP LENGTH  86400.      1440.0      24.000      1.0000     2.73785E-03
 STRESS PERIOD TIME 2.76480E+06  46080.      768.00      32.000     8.76112E-02
         TOTAL TIME 2.85120E+06  47520.      792.00      33.000     9.03491E-02
1

 SOLVING FOR HEAD 

 OUTPUT CONTROL FOR STRESS PERIOD    2   TIME STEP   33
    SAVE HEAD FOR ALL LAYERS
    SAVE DRAWDOWN FOR ALL LAYERS
    SAVE BUDGET
    PRINT HEAD FOR ALL LAYERS
    PRINT BUDGET
 UBDSV1 SAVING "         STORAGE" ON UNIT  53 AT TIME STEP 33, STRESS PERIOD   2
 UBDSV2 SAVING "   CONSTANT HEAD" ON UNIT  53 AT TIME STEP 33, STRESS PERIOD   2
 UBDSV1 SAVING "FLOW RIGHT FACE " ON UNIT  53 AT TIME STEP 33, STRESS PERIOD   2
 UBDSV1 SAVING "FLOW FRONT FACE " ON UNIT  53 AT TIME STEP 33, STRESS PERIOD   2
1
              HEAD IN LAYER   1 AT END OF TIME STEP  33 IN STRESS PERIOD    2
  ---------------------------------------------------------------------------

            1           2           3           4           5           6           7           8           9          10
 ........................................................................................................................
   1    9.991       8.933       7.869       6.793       5.702       4.593       3.467       2.325       1.171      1.1598E-02
   2    9.991       8.933       7.869       6.793       5.702       4.593       3.467       2.325       1.171      1.1598E-02
   3    9.991       8.933       7.869       6.793       5.702       4.593       3.467       2.325       1.171      1.1598E-02
   4    9.991       8.933       7.869       6.793       5.702       4.593       3.467       2.325       1.171      1.1598E-02
   5    9.991       8.933       7.869       6.793       5.702       4.593       3.467       2.325       1.171      1.1598E-02
   6    9.991       8.933       7.869       6.793       5.702       4.593       3.467       2.325       1.171      1.1598E-02
   7    9.991       8.933       7.869       6.793       5.702       4.593       3.467       2.325       1.171      1.1598E-02
   8    9.991       8.933       7.869       6.793       5.702       4.593       3.467       2.325       1.171      1.1598E-02
   9    9.991       8.933       7.869       6.793       5.702       4.593       3.467       2.325       1.171      1.1598E-02
  10    9.991       8.933       7.869       6.793       5.702       4.593       3.467       2.325       1.171      1.1598E-02

 HEAD WILL BE SAVED ON UNIT   51 AT END OF TIME STEP   33, STRESS PERIOD    2

 DRAWDOWN WILL BE SAVED ON UNIT   52 AT END OF TIME STEP   33, STRESS PERIOD    2
1
  VOLUMETRIC BUDGET FOR ENTIRE MODEL AT END OF TIME STEP   33, STRESS PERIOD   2
  ------------------------------------------------------------------------------

     CUMULATIVE VOLUMES      L**3       RATES FOR THIS TIME STEP      L**3/T
     ------------------                 ------------------------

           IN:                                      IN:
           ---                                      ---
             STORAGE =       24571.2031               STORAGE =          50.9608
       CONSTANT HEAD =           0.0000         CONSTANT HEAD =           0.0000
               WELLS =           0.0000                 WELLS =           0.0000
     HEAD DEP BOUNDS =       11080.0459       HEAD DEP BOUNDS =         528.9433

            TOTAL IN =       35651.2500              TOTAL IN =         579.9041

          OUT:                                     OUT:
          ----                                     ----
             STORAGE =           0.0000               STORAGE =           0.0000
       CONSTANT HEAD =           0.0000         CONSTANT HEAD =           0.0000
               WELLS =           0.0000                 WELLS =           0.0000
     HEAD DEP BOUNDS =       35651.2500       HEAD DEP BOUNDS =         579.9107

           TOTAL OUT =       35651.2500             TOTAL OUT =         579.9107

            IN - OUT =           0.0000              IN - OUT =      -6.6528E-03

 PERCENT DISCREPANCY =           0.00     PERCENT DISCREPANCY =          -0.00






         TIME SUMMARY AT END OF TIME STEP   33 IN STRESS PERIOD    2
                    SECONDS     MINUTES      HOURS       DAYS        YEARS
                    -----------------------------------------------------------
   TIME STEP LENGTH  86400.      1440.0      24.000      1.0000     2.73785E-03
 STRESS PERIOD TIME 2.85120E+06  47520.      792.00      33.000     9.03491E-02
         TOTAL TIME 2.93760E+06  48960.      816.00      34.000     9.30869E-02
1

 SOLVING FOR HEAD 

 OUTPUT CONTROL FOR STRESS PERIOD    2   TIME STEP   34
    SAVE HEAD FOR ALL LAYERS
    SAVE DRAWDOWN FOR ALL LAYERS
    SAVE BUDGET
    PRINT HEAD FOR ALL LAYERS
    PRINT BUDGET
 UBDSV1 SAVING "         STORAGE" ON UNIT  53 AT TIME STEP 34, STRESS PERIOD   2
 UBDSV2 SAVING "   CONSTANT HEAD" ON UNIT  53 AT TIME STEP 34, STRESS PERIOD   2
 UBDSV1 SAVING "FLOW RIGHT FACE " ON UNIT  53 AT TIME STEP 34, STRESS PERIOD   2
 UBDSV1 SAVING "FLOW FRONT FACE " ON UNIT  53 AT TIME STEP 34, STRESS PERIOD   2
1
              HEAD IN LAYER   1 AT END OF TIME STEP  34 IN STRESS PERIOD    2
  ---------------------------------------------------------------------------

            1           2           3           4           5           6           7           8           9          10
 ........................................................................................................................
   1    9.991       8.928       7.859       6.780       5.687       4.578       3.453       2.315       1.166      1.1544E-02
   2    9.991       8.928       7.859       6.780       5.687       4.578       3.453       2.315       1.166      1.1544E-02
   3    9.991       8.928       7.859       6.780       5.687       4.578       3.453       2.315       1.166      1.1544E-02
   4    9.991       8.928       7.859       6.780       5.687       4.578       3.453       2.315       1.166      1.1544E-02
   5    9.991       8.928       7.859       6.780       5.687       4.578       3.453       2.315       1.166      1.1544E-02
   6    9.991       8.928       7.859       6.780       5.687       4.578       3.453       2.315       1.166      1.1544E-02
   7    9.991       8.928       7.859       6.780       5.687       4.578       3.453       2.315       1.166      1.1544E-02
   8    9.991       8.928       7.859       6.780       5.687       4.578       3.453       2.315       1.166      1.1544E-02
   9    9.991       8.928       7.859       6.780       5.687       4.578       3.453       2.315       1.166      1.1544E-02
  10    9.991       8.928       7.859       6.780       5.687       4.578       3.453       2.315       1.166      1.1544E-02

 HEAD WILL BE SAVED ON UNIT   51 AT END OF TIME STEP   34, STRESS PERIOD    2

 DRAWDOWN WILL BE SAVED ON UNIT   52 AT END OF TIME STEP   34, STRESS PERIOD    2
1
  VOLUMETRIC BUDGET FOR ENTIRE MODEL AT END OF TIME STEP   34, STRESS PERIOD   2
  ------------------------------------------------------------------------------

     CUMULATIVE VOLUMES      L**3       RATES FOR THIS TIME STEP      L**3/T
     ------------------                 ------------------------

           IN:                                      IN:
           ---                                      ---
             STORAGE =       24616.6973               STORAGE =          45.4944
       CONSTANT HEAD =           0.0000         CONSTANT HEAD =           0.0000
               WELLS =           0.0000                 WELLS =           0.0000
     HEAD DEP BOUNDS =       11611.7344       HEAD DEP BOUNDS =         531.6883

            TOTAL IN =       36228.4297              TOTAL IN =         577.1827

          OUT:                                     OUT:
          ----                                     ----
             STORAGE =           0.0000               STORAGE =           0.0000
       CONSTANT HEAD =           0.0000         CONSTANT HEAD =           0.0000
               WELLS =           0.0000                 WELLS =           0.0000
     HEAD DEP BOUNDS =       36228.4258       HEAD DEP BOUNDS =         577.1767

           TOTAL OUT =       36228.4258             TOTAL OUT =         577.1767

            IN - OUT =       3.9062E-03              IN - OUT =       5.9814E-03

 PERCENT DISCREPANCY =           0.00     PERCENT DISCREPANCY =           0.00






         TIME SUMMARY AT END OF TIME STEP   34 IN STRESS PERIOD    2
                    SECONDS     MINUTES      HOURS       DAYS        YEARS
                    -----------------------------------------------------------
   TIME STEP LENGTH  86400.      1440.0      24.000      1.0000     2.73785E-03
 STRESS PERIOD TIME 2.93760E+06  48960.      816.00      34.000     9.30869E-02
         TOTAL TIME 3.02400E+06  50400.      840.00      35.000     9.58248E-02
1

 SOLVING FOR HEAD 

 OUTPUT CONTROL FOR STRESS PERIOD    2   TIME STEP   35
    SAVE HEAD FOR ALL LAYERS
    SAVE DRAWDOWN FOR ALL LAYERS
    SAVE BUDGET
    PRINT HEAD FOR ALL LAYERS
    PRINT BUDGET
 UBDSV1 SAVING "         STORAGE" ON UNIT  53 AT TIME STEP 35, STRESS PERIOD   2
 UBDSV2 SAVING "   CONSTANT HEAD" ON UNIT  53 AT TIME STEP 35, STRESS PERIOD   2
 UBDSV1 SAVING "FLOW RIGHT FACE " ON UNIT  53 AT TIME STEP 35, STRESS PERIOD   2
 UBDSV1 SAVING "FLOW FRONT FACE " ON UNIT  53 AT TIME STEP 35, STRESS PERIOD   2
1
              HEAD IN LAYER   1 AT END OF TIME STEP  35 IN STRESS PERIOD    2
  ---------------------------------------------------------------------------

            1           2           3           4           5           6           7           8           9          10
 ........................................................................................................................
   1    9.991       8.923       7.850       6.767       5.672       4.564       3.441       2.305       1.161      1.1495E-02
   2    9.991       8.923       7.850       6.767       5.672       4.564       3.441       2.305       1.161      1.1495E-02
   3    9.991       8.923       7.850       6.767       5.672       4.564       3.441       2.305       1.161      1.1495E-02
   4    9.991       8.923       7.850       6.767       5.672       4.564       3.441       2.305       1.161      1.1495E-02
   5    9.991       8.923       7.850       6.767       5.672       4.564       3.441       2.305       1.161      1.1495E-02
   6    9.991       8.923       7.850       6.767       5.672       4.564       3.441       2.305       1.161      1.1495E-02
   7    9.991       8.923       7.850       6.767       5.672       4.564       3.441       2.305       1.161      1.1495E-02
   8    9.991       8.923       7.850       6.767       5.672       4.564       3.441       2.305       1.161      1.1495E-02
   9    9.991       8.923       7.850       6.767       5.672       4.564       3.441       2.305       1.161      1.1495E-02
  10    9.991       8.923       7.850       6.767       5.672       4.564       3.441       2.305       1.161      1.1495E-02

 HEAD WILL BE SAVED ON UNIT   51 AT END OF TIME STEP   35, STRESS PERIOD    2

 DRAWDOWN WILL BE SAVED ON UNIT   52 AT END OF TIME STEP   35, STRESS PERIOD    2
1
  VOLUMETRIC BUDGET FOR ENTIRE MODEL AT END OF TIME STEP   35, STRESS PERIOD   2
  ------------------------------------------------------------------------------

     CUMULATIVE VOLUMES      L**3       RATES FOR THIS TIME STEP      L**3/T
     ------------------                 ------------------------

           IN:                                      IN:
           ---                                      ---
             STORAGE =       24657.3125               STORAGE =          40.6143
       CONSTANT HEAD =           0.0000         CONSTANT HEAD =           0.0000
               WELLS =           0.0000                 WELLS =           0.0000
     HEAD DEP BOUNDS =       12145.8389       HEAD DEP BOUNDS =         534.1047

            TOTAL IN =       36803.1523              TOTAL IN =         574.7190

          OUT:                                     OUT:
          ----                                     ----
             STORAGE =           0.0000               STORAGE =           0.0000
       CONSTANT HEAD =           0.0000         CONSTANT HEAD =           0.0000
               WELLS =           0.0000                 WELLS =           0.0000
     HEAD DEP BOUNDS =       36803.1602       HEAD DEP BOUNDS =         574.7361

           TOTAL OUT =       36803.1602             TOTAL OUT =         574.7361

            IN - OUT =      -7.8125E-03              IN - OUT =      -1.7151E-02

 PERCENT DISCREPANCY =          -0.00     PERCENT DISCREPANCY =          -0.00






         TIME SUMMARY AT END OF TIME STEP   35 IN STRESS PERIOD    2
                    SECONDS     MINUTES      HOURS       DAYS        YEARS
                    -----------------------------------------------------------
   TIME STEP LENGTH  86400.      1440.0      24.000      1.0000     2.73785E-03
 STRESS PERIOD TIME 3.02400E+06  50400.      840.00      35.000     9.58248E-02
         TOTAL TIME 3.11040E+06  51840.      864.00      36.000     9.85626E-02
1

 SOLVING FOR HEAD 

 OUTPUT CONTROL FOR STRESS PERIOD    2   TIME STEP   36
    SAVE HEAD FOR ALL LAYERS
    SAVE DRAWDOWN FOR ALL LAYERS
    SAVE BUDGET
    PRINT HEAD FOR ALL LAYERS
    PRINT BUDGET
 UBDSV1 SAVING "         STORAGE" ON UNIT  53 AT TIME STEP 36, STRESS PERIOD   2
 UBDSV2 SAVING "   CONSTANT HEAD" ON UNIT  53 AT TIME STEP 36, STRESS PERIOD   2
 UBDSV1 SAVING "FLOW RIGHT FACE " ON UNIT  53 AT TIME STEP 36, STRESS PERIOD   2
 UBDSV1 SAVING "FLOW FRONT FACE " ON UNIT  53 AT TIME STEP 36, STRESS PERIOD   2
1
              HEAD IN LAYER   1 AT END OF TIME STEP  36 IN STRESS PERIOD    2
  ---------------------------------------------------------------------------

            1           2           3           4           5           6           7           8           9          10
 ........................................................................................................................
   1    9.991       8.918       7.841       6.756       5.660       4.551       3.430       2.297       1.157      1.1451E-02
   2    9.991       8.918       7.841       6.756       5.660       4.551       3.430       2.297       1.157      1.1451E-02
   3    9.991       8.918       7.841       6.756       5.660       4.551       3.430       2.297       1.157      1.1451E-02
   4    9.991       8.918       7.841       6.756       5.660       4.551       3.430       2.297       1.157      1.1451E-02
   5    9.991       8.918       7.841       6.756       5.660       4.551       3.430       2.297       1.157      1.1451E-02
   6    9.991       8.918       7.841       6.756       5.660       4.551       3.430       2.297       1.157      1.1451E-02
   7    9.991       8.918       7.841       6.756       5.660       4.551       3.430       2.297       1.157      1.1451E-02
   8    9.991       8.918       7.841       6.756       5.660       4.551       3.430       2.297       1.157      1.1451E-02
   9    9.991       8.918       7.841       6.756       5.660       4.551       3.430       2.297       1.157      1.1451E-02
  10    9.991       8.918       7.841       6.756       5.660       4.551       3.430       2.297       1.157      1.1451E-02

 HEAD WILL BE SAVED ON UNIT   51 AT END OF TIME STEP   36, STRESS PERIOD    2

 DRAWDOWN WILL BE SAVED ON UNIT   52 AT END OF TIME STEP   36, STRESS PERIOD    2
1
  VOLUMETRIC BUDGET FOR ENTIRE MODEL AT END OF TIME STEP   36, STRESS PERIOD   2
  ------------------------------------------------------------------------------

     CUMULATIVE VOLUMES      L**3       RATES FOR THIS TIME STEP      L**3/T
     ------------------                 ------------------------

           IN:                                      IN:
           ---                                      ---
             STORAGE =       24693.5723               STORAGE =          36.2597
       CONSTANT HEAD =           0.0000         CONSTANT HEAD =           0.0000
               WELLS =           0.0000                 WELLS =           0.0000
     HEAD DEP BOUNDS =       12682.1396       HEAD DEP BOUNDS =         536.3006

            TOTAL IN =       37375.7109              TOTAL IN =         572.5603

          OUT:                                     OUT:
          ----                                     ----
             STORAGE =           0.0000               STORAGE =           0.0000
       CONSTANT HEAD =           0.0000         CONSTANT HEAD =           0.0000
               WELLS =           0.0000                 WELLS =           0.0000
     HEAD DEP BOUNDS =       37375.7188       HEAD DEP BOUNDS =         572.5576

           TOTAL OUT =       37375.7188             TOTAL OUT =         572.5576

            IN - OUT =      -7.8125E-03              IN - OUT =       2.7466E-03

 PERCENT DISCREPANCY =          -0.00     PERCENT DISCREPANCY =           0.00






         TIME SUMMARY AT END OF TIME STEP   36 IN STRESS PERIOD    2
                    SECONDS     MINUTES      HOURS       DAYS        YEARS
                    -----------------------------------------------------------
   TIME STEP LENGTH  86400.      1440.0      24.000      1.0000     2.73785E-03
 STRESS PERIOD TIME 3.11040E+06  51840.      864.00      36.000     9.85626E-02
         TOTAL TIME 3.19680E+06  53280.      888.00      37.000     0.10130    
1

 SOLVING FOR HEAD 

 OUTPUT CONTROL FOR STRESS PERIOD    2   TIME STEP   37
    SAVE HEAD FOR ALL LAYERS
    SAVE DRAWDOWN FOR ALL LAYERS
    SAVE BUDGET
    PRINT HEAD FOR ALL LAYERS
    PRINT BUDGET
 UBDSV1 SAVING "         STORAGE" ON UNIT  53 AT TIME STEP 37, STRESS PERIOD   2
 UBDSV2 SAVING "   CONSTANT HEAD" ON UNIT  53 AT TIME STEP 37, STRESS PERIOD   2
 UBDSV1 SAVING "FLOW RIGHT FACE " ON UNIT  53 AT TIME STEP 37, STRESS PERIOD   2
 UBDSV1 SAVING "FLOW FRONT FACE " ON UNIT  53 AT TIME STEP 37, STRESS PERIOD   2
1
              HEAD IN LAYER   1 AT END OF TIME STEP  37 IN STRESS PERIOD    2
  ---------------------------------------------------------------------------

            1           2           3           4           5           6           7           8           9          10
 ........................................................................................................................
   1    9.991       8.915       7.834       6.746       5.649       4.540       3.420       2.290       1.153      1.1412E-02
   2    9.991       8.915       7.834       6.746       5.649       4.540       3.420       2.290       1.153      1.1412E-02
   3    9.991       8.915       7.834       6.746       5.649       4.540       3.420       2.290       1.153      1.1412E-02
   4    9.991       8.915       7.834       6.746       5.649       4.540       3.420       2.290       1.153      1.1412E-02
   5    9.991       8.915       7.834       6.746       5.649       4.540       3.420       2.290       1.153      1.1412E-02
   6    9.991       8.915       7.834       6.746       5.649       4.540       3.420       2.290       1.153      1.1412E-02
   7    9.991       8.915       7.834       6.746       5.649       4.540       3.420       2.290       1.153      1.1412E-02
   8    9.991       8.915       7.834       6.746       5.649       4.540       3.420       2.290       1.153      1.1412E-02
   9    9.991       8.915       7.834       6.746       5.649       4.540       3.420       2.290       1.153      1.1412E-02
  10    9.991       8.915       7.834       6.746       5.649       4.540       3.420       2.290       1.153      1.1412E-02

 HEAD WILL BE SAVED ON UNIT   51 AT END OF TIME STEP   37, STRESS PERIOD    2

 DRAWDOWN WILL BE SAVED ON UNIT   52 AT END OF TIME STEP   37, STRESS PERIOD    2
1
  VOLUMETRIC BUDGET FOR ENTIRE MODEL AT END OF TIME STEP   37, STRESS PERIOD   2
  ------------------------------------------------------------------------------

     CUMULATIVE VOLUMES      L**3       RATES FOR THIS TIME STEP      L**3/T
     ------------------                 ------------------------

           IN:                                      IN:
           ---                                      ---
             STORAGE =       24725.9414               STORAGE =          32.3696
       CONSTANT HEAD =           0.0000         CONSTANT HEAD =           0.0000
               WELLS =           0.0000                 WELLS =           0.0000
     HEAD DEP BOUNDS =       13220.3662       HEAD DEP BOUNDS =         538.2268

            TOTAL IN =       37946.3086              TOTAL IN =         570.5964

          OUT:                                     OUT:
          ----                                     ----
             STORAGE =           0.0000               STORAGE =           0.0000
       CONSTANT HEAD =           0.0000         CONSTANT HEAD =           0.0000
               WELLS =           0.0000                 WELLS =           0.0000
     HEAD DEP BOUNDS =       37946.3320       HEAD DEP BOUNDS =         570.6127

           TOTAL OUT =       37946.3320             TOTAL OUT =         570.6127

            IN - OUT =      -2.3438E-02              IN - OUT =      -1.6235E-02

 PERCENT DISCREPANCY =          -0.00     PERCENT DISCREPANCY =          -0.00






         TIME SUMMARY AT END OF TIME STEP   37 IN STRESS PERIOD    2
                    SECONDS     MINUTES      HOURS       DAYS        YEARS
                    -----------------------------------------------------------
   TIME STEP LENGTH  86400.      1440.0      24.000      1.0000     2.73785E-03
 STRESS PERIOD TIME 3.19680E+06  53280.      888.00      37.000     0.10130    
         TOTAL TIME 3.28320E+06  54720.      912.00      38.000     0.10404    
1

 SOLVING FOR HEAD 

 OUTPUT CONTROL FOR STRESS PERIOD    2   TIME STEP   38
    SAVE HEAD FOR ALL LAYERS
    SAVE DRAWDOWN FOR ALL LAYERS
    SAVE BUDGET
    PRINT HEAD FOR ALL LAYERS
    PRINT BUDGET
 UBDSV1 SAVING "         STORAGE" ON UNIT  53 AT TIME STEP 38, STRESS PERIOD   2
 UBDSV2 SAVING "   CONSTANT HEAD" ON UNIT  53 AT TIME STEP 38, STRESS PERIOD   2
 UBDSV1 SAVING "FLOW RIGHT FACE " ON UNIT  53 AT TIME STEP 38, STRESS PERIOD   2
 UBDSV1 SAVING "FLOW FRONT FACE " ON UNIT  53 AT TIME STEP 38, STRESS PERIOD   2
1
              HEAD IN LAYER   1 AT END OF TIME STEP  38 IN STRESS PERIOD    2
  ---------------------------------------------------------------------------

            1           2           3           4           5           6           7           8           9          10
 ........................................................................................................................
   1    9.991       8.911       7.828       6.738       5.639       4.530       3.411       2.283       1.149      1.1378E-02
   2    9.991       8.911       7.828       6.738       5.639       4.530       3.411       2.283       1.149      1.1378E-02
   3    9.991       8.911       7.828       6.738       5.639       4.530       3.411       2.283       1.149      1.1378E-02
   4    9.991       8.911       7.828       6.738       5.639       4.530       3.411       2.283       1.149      1.1378E-02
   5    9.991       8.911       7.828       6.738       5.639       4.530       3.411       2.283       1.149      1.1378E-02
   6    9.991       8.911       7.828       6.738       5.639       4.530       3.411       2.283       1.149      1.1378E-02
   7    9.991       8.911       7.828       6.738       5.639       4.530       3.411       2.283       1.149      1.1378E-02
   8    9.991       8.911       7.828       6.738       5.639       4.530       3.411       2.283       1.149      1.1378E-02
   9    9.991       8.911       7.828       6.738       5.639       4.530       3.411       2.283       1.149      1.1378E-02
  10    9.991       8.911       7.828       6.738       5.639       4.530       3.411       2.283       1.149      1.1378E-02

 HEAD WILL BE SAVED ON UNIT   51 AT END OF TIME STEP   38, STRESS PERIOD    2

 DRAWDOWN WILL BE SAVED ON UNIT   52 AT END OF TIME STEP   38, STRESS PERIOD    2
1
  VOLUMETRIC BUDGET FOR ENTIRE MODEL AT END OF TIME STEP   38, STRESS PERIOD   2
  ------------------------------------------------------------------------------

     CUMULATIVE VOLUMES      L**3       RATES FOR THIS TIME STEP      L**3/T
     ------------------                 ------------------------

           IN:                                      IN:
           ---                                      ---
             STORAGE =       24754.8398               STORAGE =          28.8990
       CONSTANT HEAD =           0.0000         CONSTANT HEAD =           0.0000
               WELLS =           0.0000                 WELLS =           0.0000
     HEAD DEP BOUNDS =       13760.3516       HEAD DEP BOUNDS =         539.9850

            TOTAL IN =       38515.1914              TOTAL IN =         568.8840

          OUT:                                     OUT:
          ----                                     ----
             STORAGE =           0.0000               STORAGE =           0.0000
       CONSTANT HEAD =           0.0000         CONSTANT HEAD =           0.0000
               WELLS =           0.0000                 WELLS =           0.0000
     HEAD DEP BOUNDS =       38515.2070       HEAD DEP BOUNDS =         568.8765

           TOTAL OUT =       38515.2070             TOTAL OUT =         568.8765

            IN - OUT =      -1.5625E-02              IN - OUT =       7.5073E-03

 PERCENT DISCREPANCY =          -0.00     PERCENT DISCREPANCY =           0.00






         TIME SUMMARY AT END OF TIME STEP   38 IN STRESS PERIOD    2
                    SECONDS     MINUTES      HOURS       DAYS        YEARS
                    -----------------------------------------------------------
   TIME STEP LENGTH  86400.      1440.0      24.000      1.0000     2.73785E-03
 STRESS PERIOD TIME 3.28320E+06  54720.      912.00      38.000     0.10404    
         TOTAL TIME 3.36960E+06  56160.      936.00      39.000     0.10678    
1

 SOLVING FOR HEAD 

 OUTPUT CONTROL FOR STRESS PERIOD    2   TIME STEP   39
    SAVE HEAD FOR ALL LAYERS
    SAVE DRAWDOWN FOR ALL LAYERS
    SAVE BUDGET
    PRINT HEAD FOR ALL LAYERS
    PRINT BUDGET
 UBDSV1 SAVING "         STORAGE" ON UNIT  53 AT TIME STEP 39, STRESS PERIOD   2
 UBDSV2 SAVING "   CONSTANT HEAD" ON UNIT  53 AT TIME STEP 39, STRESS PERIOD   2
 UBDSV1 SAVING "FLOW RIGHT FACE " ON UNIT  53 AT TIME STEP 39, STRESS PERIOD   2
 UBDSV1 SAVING "FLOW FRONT FACE " ON UNIT  53 AT TIME STEP 39, STRESS PERIOD   2
1
              HEAD IN LAYER   1 AT END OF TIME STEP  39 IN STRESS PERIOD    2
  ---------------------------------------------------------------------------

            1           2           3           4           5           6           7           8           9          10
 ........................................................................................................................
   1    9.991       8.908       7.822       6.730       5.630       4.521       3.403       2.277       1.146      1.1347E-02
   2    9.991       8.908       7.822       6.730       5.630       4.521       3.403       2.277       1.146      1.1347E-02
   3    9.991       8.908       7.822       6.730       5.630       4.521       3.403       2.277       1.146      1.1347E-02
   4    9.991       8.908       7.822       6.730       5.630       4.521       3.403       2.277       1.146      1.1347E-02
   5    9.991       8.908       7.822       6.730       5.630       4.521       3.403       2.277       1.146      1.1347E-02
   6    9.991       8.908       7.822       6.730       5.630       4.521       3.403       2.277       1.146      1.1347E-02
   7    9.991       8.908       7.822       6.730       5.630       4.521       3.403       2.277       1.146      1.1347E-02
   8    9.991       8.908       7.822       6.730       5.630       4.521       3.403       2.277       1.146      1.1347E-02
   9    9.991       8.908       7.822       6.730       5.630       4.521       3.403       2.277       1.146      1.1347E-02
  10    9.991       8.908       7.822       6.730       5.630       4.521       3.403       2.277       1.146      1.1347E-02

 HEAD WILL BE SAVED ON UNIT   51 AT END OF TIME STEP   39, STRESS PERIOD    2

 DRAWDOWN WILL BE SAVED ON UNIT   52 AT END OF TIME STEP   39, STRESS PERIOD    2
1
  VOLUMETRIC BUDGET FOR ENTIRE MODEL AT END OF TIME STEP   39, STRESS PERIOD   2
  ------------------------------------------------------------------------------

     CUMULATIVE VOLUMES      L**3       RATES FOR THIS TIME STEP      L**3/T
     ------------------                 ------------------------

           IN:                                      IN:
           ---                                      ---
             STORAGE =       24780.6387               STORAGE =          25.7990
       CONSTANT HEAD =           0.0000         CONSTANT HEAD =           0.0000
               WELLS =           0.0000                 WELLS =           0.0000
     HEAD DEP BOUNDS =       14301.8721       HEAD DEP BOUNDS =         541.5203

            TOTAL IN =       39082.5117              TOTAL IN =         567.3193

          OUT:                                     OUT:
          ----                                     ----
             STORAGE =           0.0000               STORAGE =           0.0000
       CONSTANT HEAD =           0.0000         CONSTANT HEAD =           0.0000
               WELLS =           0.0000                 WELLS =           0.0000
     HEAD DEP BOUNDS =       39082.5352       HEAD DEP BOUNDS =         567.3265

           TOTAL OUT =       39082.5352             TOTAL OUT =         567.3265

            IN - OUT =      -2.3438E-02              IN - OUT =      -7.1411E-03

 PERCENT DISCREPANCY =          -0.00     PERCENT DISCREPANCY =          -0.00






         TIME SUMMARY AT END OF TIME STEP   39 IN STRESS PERIOD    2
                    SECONDS     MINUTES      HOURS       DAYS        YEARS
                    -----------------------------------------------------------
   TIME STEP LENGTH  86400.      1440.0      24.000      1.0000     2.73785E-03
 STRESS PERIOD TIME 3.36960E+06  56160.      936.00      39.000     0.10678    
         TOTAL TIME 3.45600E+06  57600.      960.00      40.000     0.10951    
1

 SOLVING FOR HEAD 

 OUTPUT CONTROL FOR STRESS PERIOD    2   TIME STEP   40
    SAVE HEAD FOR ALL LAYERS
    SAVE DRAWDOWN FOR ALL LAYERS
    SAVE BUDGET
    PRINT HEAD FOR ALL LAYERS
    PRINT BUDGET
 UBDSV1 SAVING "         STORAGE" ON UNIT  53 AT TIME STEP 40, STRESS PERIOD   2
 UBDSV2 SAVING "   CONSTANT HEAD" ON UNIT  53 AT TIME STEP 40, STRESS PERIOD   2
 UBDSV1 SAVING "FLOW RIGHT FACE " ON UNIT  53 AT TIME STEP 40, STRESS PERIOD   2
 UBDSV1 SAVING "FLOW FRONT FACE " ON UNIT  53 AT TIME STEP 40, STRESS PERIOD   2
1
              HEAD IN LAYER   1 AT END OF TIME STEP  40 IN STRESS PERIOD    2
  ---------------------------------------------------------------------------

            1           2           3           4           5           6           7           8           9          10
 ........................................................................................................................
   1    9.991       8.905       7.816       6.723       5.622       4.513       3.396       2.272       1.143      1.1319E-02
   2    9.991       8.905       7.816       6.723       5.622       4.513       3.396       2.272       1.143      1.1319E-02
   3    9.991       8.905       7.816       6.723       5.622       4.513       3.396       2.272       1.143      1.1319E-02
   4    9.991       8.905       7.816       6.723       5.622       4.513       3.396       2.272       1.143      1.1319E-02
   5    9.991       8.905       7.816       6.723       5.622       4.513       3.396       2.272       1.143      1.1319E-02
   6    9.991       8.905       7.816       6.723       5.622       4.513       3.396       2.272       1.143      1.1319E-02
   7    9.991       8.905       7.816       6.723       5.622       4.513       3.396       2.272       1.143      1.1319E-02
   8    9.991       8.905       7.816       6.723       5.622       4.513       3.396       2.272       1.143      1.1319E-02
   9    9.991       8.905       7.816       6.723       5.622       4.513       3.396       2.272       1.143      1.1319E-02
  10    9.991       8.905       7.816       6.723       5.622       4.513       3.396       2.272       1.143      1.1319E-02

 HEAD WILL BE SAVED ON UNIT   51 AT END OF TIME STEP   40, STRESS PERIOD    2

 DRAWDOWN WILL BE SAVED ON UNIT   52 AT END OF TIME STEP   40, STRESS PERIOD    2
1
  VOLUMETRIC BUDGET FOR ENTIRE MODEL AT END OF TIME STEP   40, STRESS PERIOD   2
  ------------------------------------------------------------------------------

     CUMULATIVE VOLUMES      L**3       RATES FOR THIS TIME STEP      L**3/T
     ------------------                 ------------------------

           IN:                                      IN:
           ---                                      ---
             STORAGE =       24803.6699               STORAGE =          23.0319
       CONSTANT HEAD =           0.0000         CONSTANT HEAD =           0.0000
               WELLS =           0.0000                 WELLS =           0.0000
     HEAD DEP BOUNDS =       14844.8018       HEAD DEP BOUNDS =         542.9294

            TOTAL IN =       39648.4727              TOTAL IN =         565.9612

          OUT:                                     OUT:
          ----                                     ----
             STORAGE =           0.0000               STORAGE =           0.0000
       CONSTANT HEAD =           0.0000         CONSTANT HEAD =           0.0000
               WELLS =           0.0000                 WELLS =           0.0000
     HEAD DEP BOUNDS =       39648.4766       HEAD DEP BOUNDS =         565.9428

           TOTAL OUT =       39648.4766             TOTAL OUT =         565.9428

            IN - OUT =      -3.9062E-03              IN - OUT =       1.8433E-02

 PERCENT DISCREPANCY =          -0.00     PERCENT DISCREPANCY =           0.00






         TIME SUMMARY AT END OF TIME STEP   40 IN STRESS PERIOD    2
                    SECONDS     MINUTES      HOURS       DAYS        YEARS
                    -----------------------------------------------------------
   TIME STEP LENGTH  86400.      1440.0      24.000      1.0000     2.73785E-03
 STRESS PERIOD TIME 3.45600E+06  57600.      960.00      40.000     0.10951    
         TOTAL TIME 3.54240E+06  59040.      984.00      41.000     0.11225    
1

 SOLVING FOR HEAD 

 OUTPUT CONTROL FOR STRESS PERIOD    2   TIME STEP   41
    SAVE HEAD FOR ALL LAYERS
    SAVE DRAWDOWN FOR ALL LAYERS
    SAVE BUDGET
    PRINT HEAD FOR ALL LAYERS
    PRINT BUDGET
 UBDSV1 SAVING "         STORAGE" ON UNIT  53 AT TIME STEP 41, STRESS PERIOD   2
 UBDSV2 SAVING "   CONSTANT HEAD" ON UNIT  53 AT TIME STEP 41, STRESS PERIOD   2
 UBDSV1 SAVING "FLOW RIGHT FACE " ON UNIT  53 AT TIME STEP 41, STRESS PERIOD   2
 UBDSV1 SAVING "FLOW FRONT FACE " ON UNIT  53 AT TIME STEP 41, STRESS PERIOD   2
1
              HEAD IN LAYER   1 AT END OF TIME STEP  41 IN STRESS PERIOD    2
  ---------------------------------------------------------------------------

            1           2           3           4           5           6           7           8           9          10
 ........................................................................................................................
   1    9.991       8.903       7.812       6.716       5.615       4.506       3.390       2.268       1.141      1.1294E-02
   2    9.991       8.903       7.812       6.716       5.615       4.506       3.390       2.268       1.141      1.1294E-02
   3    9.991       8.903       7.812       6.716       5.615       4.506       3.390       2.268       1.141      1.1294E-02
   4    9.991       8.903       7.812       6.716       5.615       4.506       3.390       2.268       1.141      1.1294E-02
   5    9.991       8.903       7.812       6.716       5.615       4.506       3.390       2.268       1.141      1.1294E-02
   6    9.991       8.903       7.812       6.716       5.615       4.506       3.390       2.268       1.141      1.1294E-02
   7    9.991       8.903       7.812       6.716       5.615       4.506       3.390       2.268       1.141      1.1294E-02
   8    9.991       8.903       7.812       6.716       5.615       4.506       3.390       2.268       1.141      1.1294E-02
   9    9.991       8.903       7.812       6.716       5.615       4.506       3.390       2.268       1.141      1.1294E-02
  10    9.991       8.903       7.812       6.716       5.615       4.506       3.390       2.268       1.141      1.1294E-02

 HEAD WILL BE SAVED ON UNIT   51 AT END OF TIME STEP   41, STRESS PERIOD    2

 DRAWDOWN WILL BE SAVED ON UNIT   52 AT END OF TIME STEP   41, STRESS PERIOD    2
1
  VOLUMETRIC BUDGET FOR ENTIRE MODEL AT END OF TIME STEP   41, STRESS PERIOD   2
  ------------------------------------------------------------------------------

     CUMULATIVE VOLUMES      L**3       RATES FOR THIS TIME STEP      L**3/T
     ------------------                 ------------------------

           IN:                                      IN:
           ---                                      ---
             STORAGE =       24824.2324               STORAGE =          20.5616
       CONSTANT HEAD =           0.0000         CONSTANT HEAD =           0.0000
               WELLS =           0.0000                 WELLS =           0.0000
     HEAD DEP BOUNDS =       15388.9551       HEAD DEP BOUNDS =         544.1531

            TOTAL IN =       40213.1875              TOTAL IN =         564.7147

          OUT:                                     OUT:
          ----                                     ----
             STORAGE =           0.0000               STORAGE =           0.0000
       CONSTANT HEAD =           0.0000         CONSTANT HEAD =           0.0000
               WELLS =           0.0000                 WELLS =           0.0000
     HEAD DEP BOUNDS =       40213.1836       HEAD DEP BOUNDS =         564.7076

           TOTAL OUT =       40213.1836             TOTAL OUT =         564.7076

            IN - OUT =       3.9062E-03              IN - OUT =       7.1411E-03

 PERCENT DISCREPANCY =           0.00     PERCENT DISCREPANCY =           0.00






         TIME SUMMARY AT END OF TIME STEP   41 IN STRESS PERIOD    2
                    SECONDS     MINUTES      HOURS       DAYS        YEARS
                    -----------------------------------------------------------
   TIME STEP LENGTH  86400.      1440.0      24.000      1.0000     2.73785E-03
 STRESS PERIOD TIME 3.54240E+06  59040.      984.00      41.000     0.11225    
         TOTAL TIME 3.62880E+06  60480.      1008.0      42.000     0.11499    
1

 SOLVING FOR HEAD 

 OUTPUT CONTROL FOR STRESS PERIOD    2   TIME STEP   42
    SAVE HEAD FOR ALL LAYERS
    SAVE DRAWDOWN FOR ALL LAYERS
    SAVE BUDGET
    PRINT HEAD FOR ALL LAYERS
    PRINT BUDGET
 UBDSV1 SAVING "         STORAGE" ON UNIT  53 AT TIME STEP 42, STRESS PERIOD   2
 UBDSV2 SAVING "   CONSTANT HEAD" ON UNIT  53 AT TIME STEP 42, STRESS PERIOD   2
 UBDSV1 SAVING "FLOW RIGHT FACE " ON UNIT  53 AT TIME STEP 42, STRESS PERIOD   2
 UBDSV1 SAVING "FLOW FRONT FACE " ON UNIT  53 AT TIME STEP 42, STRESS PERIOD   2
1
              HEAD IN LAYER   1 AT END OF TIME STEP  42 IN STRESS PERIOD    2
  ---------------------------------------------------------------------------

            1           2           3           4           5           6           7           8           9          10
 ........................................................................................................................
   1    9.991       8.900       7.808       6.711       5.608       4.499       3.384       2.263       1.138      1.1272E-02
   2    9.991       8.900       7.808       6.711       5.608       4.499       3.384       2.263       1.138      1.1272E-02
   3    9.991       8.900       7.808       6.711       5.608       4.499       3.384       2.263       1.138      1.1272E-02
   4    9.991       8.900       7.808       6.711       5.608       4.499       3.384       2.263       1.138      1.1272E-02
   5    9.991       8.900       7.808       6.711       5.608       4.499       3.384       2.263       1.138      1.1272E-02
   6    9.991       8.900       7.808       6.711       5.608       4.499       3.384       2.263       1.138      1.1272E-02
   7    9.991       8.900       7.808       6.711       5.608       4.499       3.384       2.263       1.138      1.1272E-02
   8    9.991       8.900       7.808       6.711       5.608       4.499       3.384       2.263       1.138      1.1272E-02
   9    9.991       8.900       7.808       6.711       5.608       4.499       3.384       2.263       1.138      1.1272E-02
  10    9.991       8.900       7.808       6.711       5.608       4.499       3.384       2.263       1.138      1.1272E-02

 HEAD WILL BE SAVED ON UNIT   51 AT END OF TIME STEP   42, STRESS PERIOD    2

 DRAWDOWN WILL BE SAVED ON UNIT   52 AT END OF TIME STEP   42, STRESS PERIOD    2
1
  VOLUMETRIC BUDGET FOR ENTIRE MODEL AT END OF TIME STEP   42, STRESS PERIOD   2
  ------------------------------------------------------------------------------

     CUMULATIVE VOLUMES      L**3       RATES FOR THIS TIME STEP      L**3/T
     ------------------                 ------------------------

           IN:                                      IN:
           ---                                      ---
             STORAGE =       24842.5879               STORAGE =          18.3558
       CONSTANT HEAD =           0.0000         CONSTANT HEAD =           0.0000
               WELLS =           0.0000                 WELLS =           0.0000
     HEAD DEP BOUNDS =       15934.2012       HEAD DEP BOUNDS =         545.2456

            TOTAL IN =       40776.7891              TOTAL IN =         563.6014

          OUT:                                     OUT:
          ----                                     ----
             STORAGE =           0.0000               STORAGE =           0.0000
       CONSTANT HEAD =           0.0000         CONSTANT HEAD =           0.0000
               WELLS =           0.0000                 WELLS =           0.0000
     HEAD DEP BOUNDS =       40776.7891       HEAD DEP BOUNDS =         563.6048

           TOTAL OUT =       40776.7891             TOTAL OUT =         563.6048

            IN - OUT =           0.0000              IN - OUT =      -3.3569E-03

 PERCENT DISCREPANCY =           0.00     PERCENT DISCREPANCY =          -0.00






         TIME SUMMARY AT END OF TIME STEP   42 IN STRESS PERIOD    2
                    SECONDS     MINUTES      HOURS       DAYS        YEARS
                    -----------------------------------------------------------
   TIME STEP LENGTH  86400.      1440.0      24.000      1.0000     2.73785E-03
 STRESS PERIOD TIME 3.62880E+06  60480.      1008.0      42.000     0.11499    
         TOTAL TIME 3.71520E+06  61920.      1032.0      43.000     0.11773    
1

 SOLVING FOR HEAD 

 OUTPUT CONTROL FOR STRESS PERIOD    2   TIME STEP   43
    SAVE HEAD FOR ALL LAYERS
    SAVE DRAWDOWN FOR ALL LAYERS
    SAVE BUDGET
    PRINT HEAD FOR ALL LAYERS
    PRINT BUDGET
 UBDSV1 SAVING "         STORAGE" ON UNIT  53 AT TIME STEP 43, STRESS PERIOD   2
 UBDSV2 SAVING "   CONSTANT HEAD" ON UNIT  53 AT TIME STEP 43, STRESS PERIOD   2
 UBDSV1 SAVING "FLOW RIGHT FACE " ON UNIT  53 AT TIME STEP 43, STRESS PERIOD   2
 UBDSV1 SAVING "FLOW FRONT FACE " ON UNIT  53 AT TIME STEP 43, STRESS PERIOD   2
1
              HEAD IN LAYER   1 AT END OF TIME STEP  43 IN STRESS PERIOD    2
  ---------------------------------------------------------------------------

            1           2           3           4           5           6           7           8           9          10
 ........................................................................................................................
   1    9.991       8.898       7.804       6.706       5.603       4.494       3.379       2.260       1.136      1.1252E-02
   2    9.991       8.898       7.804       6.706       5.603       4.494       3.379       2.260       1.136      1.1252E-02
   3    9.991       8.898       7.804       6.706       5.603       4.494       3.379       2.260       1.136      1.1252E-02
   4    9.991       8.898       7.804       6.706       5.603       4.494       3.379       2.260       1.136      1.1252E-02
   5    9.991       8.898       7.804       6.706       5.603       4.494       3.379       2.260       1.136      1.1252E-02
   6    9.991       8.898       7.804       6.706       5.603       4.494       3.379       2.260       1.136      1.1252E-02
   7    9.991       8.898       7.804       6.706       5.603       4.494       3.379       2.260       1.136      1.1252E-02
   8    9.991       8.898       7.804       6.706       5.603       4.494       3.379       2.260       1.136      1.1252E-02
   9    9.991       8.898       7.804       6.706       5.603       4.494       3.379       2.260       1.136      1.1252E-02
  10    9.991       8.898       7.804       6.706       5.603       4.494       3.379       2.260       1.136      1.1252E-02

 HEAD WILL BE SAVED ON UNIT   51 AT END OF TIME STEP   43, STRESS PERIOD    2

 DRAWDOWN WILL BE SAVED ON UNIT   52 AT END OF TIME STEP   43, STRESS PERIOD    2
1
  VOLUMETRIC BUDGET FOR ENTIRE MODEL AT END OF TIME STEP   43, STRESS PERIOD   2
  ------------------------------------------------------------------------------

     CUMULATIVE VOLUMES      L**3       RATES FOR THIS TIME STEP      L**3/T
     ------------------                 ------------------------

           IN:                                      IN:
           ---                                      ---
             STORAGE =       24858.9746               STORAGE =          16.3873
       CONSTANT HEAD =           0.0000         CONSTANT HEAD =           0.0000
               WELLS =           0.0000                 WELLS =           0.0000
     HEAD DEP BOUNDS =       16480.4219       HEAD DEP BOUNDS =         546.2208

            TOTAL IN =       41339.3984              TOTAL IN =         562.6080

          OUT:                                     OUT:
          ----                                     ----
             STORAGE =           0.0000               STORAGE =           0.0000
       CONSTANT HEAD =           0.0000         CONSTANT HEAD =           0.0000
               WELLS =           0.0000                 WELLS =           0.0000
     HEAD DEP BOUNDS =       41339.4102       HEAD DEP BOUNDS =         562.6204

           TOTAL OUT =       41339.4102             TOTAL OUT =         562.6204

            IN - OUT =      -1.1719E-02              IN - OUT =      -1.2329E-02

 PERCENT DISCREPANCY =          -0.00     PERCENT DISCREPANCY =          -0.00






         TIME SUMMARY AT END OF TIME STEP   43 IN STRESS PERIOD    2
                    SECONDS     MINUTES      HOURS       DAYS        YEARS
                    -----------------------------------------------------------
   TIME STEP LENGTH  86400.      1440.0      24.000      1.0000     2.73785E-03
 STRESS PERIOD TIME 3.71520E+06  61920.      1032.0      43.000     0.11773    
         TOTAL TIME 3.80160E+06  63360.      1056.0      44.000     0.12047    
1

 SOLVING FOR HEAD 

 OUTPUT CONTROL FOR STRESS PERIOD    2   TIME STEP   44
    SAVE HEAD FOR ALL LAYERS
    SAVE DRAWDOWN FOR ALL LAYERS
    SAVE BUDGET
    PRINT HEAD FOR ALL LAYERS
    PRINT BUDGET
 UBDSV1 SAVING "         STORAGE" ON UNIT  53 AT TIME STEP 44, STRESS PERIOD   2
 UBDSV2 SAVING "   CONSTANT HEAD" ON UNIT  53 AT TIME STEP 44, STRESS PERIOD   2
 UBDSV1 SAVING "FLOW RIGHT FACE " ON UNIT  53 AT TIME STEP 44, STRESS PERIOD   2
 UBDSV1 SAVING "FLOW FRONT FACE " ON UNIT  53 AT TIME STEP 44, STRESS PERIOD   2
1
              HEAD IN LAYER   1 AT END OF TIME STEP  44 IN STRESS PERIOD    2
  ---------------------------------------------------------------------------

            1           2           3           4           5           6           7           8           9          10
 ........................................................................................................................
   1    9.991       8.897       7.801       6.701       5.598       4.489       3.375       2.256       1.135      1.1235E-02
   2    9.991       8.897       7.801       6.701       5.598       4.489       3.375       2.256       1.135      1.1235E-02
   3    9.991       8.897       7.801       6.701       5.598       4.489       3.375       2.256       1.135      1.1235E-02
   4    9.991       8.897       7.801       6.701       5.598       4.489       3.375       2.256       1.135      1.1235E-02
   5    9.991       8.897       7.801       6.701       5.598       4.489       3.375       2.256       1.135      1.1235E-02
   6    9.991       8.897       7.801       6.701       5.598       4.489       3.375       2.256       1.135      1.1235E-02
   7    9.991       8.897       7.801       6.701       5.598       4.489       3.375       2.256       1.135      1.1235E-02
   8    9.991       8.897       7.801       6.701       5.598       4.489       3.375       2.256       1.135      1.1235E-02
   9    9.991       8.897       7.801       6.701       5.598       4.489       3.375       2.256       1.135      1.1235E-02
  10    9.991       8.897       7.801       6.701       5.598       4.489       3.375       2.256       1.135      1.1235E-02

 HEAD WILL BE SAVED ON UNIT   51 AT END OF TIME STEP   44, STRESS PERIOD    2

 DRAWDOWN WILL BE SAVED ON UNIT   52 AT END OF TIME STEP   44, STRESS PERIOD    2
1
  VOLUMETRIC BUDGET FOR ENTIRE MODEL AT END OF TIME STEP   44, STRESS PERIOD   2
  ------------------------------------------------------------------------------

     CUMULATIVE VOLUMES      L**3       RATES FOR THIS TIME STEP      L**3/T
     ------------------                 ------------------------

           IN:                                      IN:
           ---                                      ---
             STORAGE =       24873.6055               STORAGE =          14.6302
       CONSTANT HEAD =           0.0000         CONSTANT HEAD =           0.0000
               WELLS =           0.0000                 WELLS =           0.0000
     HEAD DEP BOUNDS =       17027.5508       HEAD DEP BOUNDS =         547.1298

            TOTAL IN =       41901.1562              TOTAL IN =         561.7601

          OUT:                                     OUT:
          ----                                     ----
             STORAGE =           0.0000               STORAGE =           0.0000
       CONSTANT HEAD =           0.0000         CONSTANT HEAD =           0.0000
               WELLS =           0.0000                 WELLS =           0.0000
     HEAD DEP BOUNDS =       41901.1523       HEAD DEP BOUNDS =         561.7415

           TOTAL OUT =       41901.1523             TOTAL OUT =         561.7415

            IN - OUT =       3.9062E-03              IN - OUT =       1.8616E-02

 PERCENT DISCREPANCY =           0.00     PERCENT DISCREPANCY =           0.00






         TIME SUMMARY AT END OF TIME STEP   44 IN STRESS PERIOD    2
                    SECONDS     MINUTES      HOURS       DAYS        YEARS
                    -----------------------------------------------------------
   TIME STEP LENGTH  86400.      1440.0      24.000      1.0000     2.73785E-03
 STRESS PERIOD TIME 3.80160E+06  63360.      1056.0      44.000     0.12047    
         TOTAL TIME 3.88800E+06  64800.      1080.0      45.000     0.12320    
1

 SOLVING FOR HEAD 

 OUTPUT CONTROL FOR STRESS PERIOD    2   TIME STEP   45
    SAVE HEAD FOR ALL LAYERS
    SAVE DRAWDOWN FOR ALL LAYERS
    SAVE BUDGET
    PRINT HEAD FOR ALL LAYERS
    PRINT BUDGET
 UBDSV1 SAVING "         STORAGE" ON UNIT  53 AT TIME STEP 45, STRESS PERIOD   2
 UBDSV2 SAVING "   CONSTANT HEAD" ON UNIT  53 AT TIME STEP 45, STRESS PERIOD   2
 UBDSV1 SAVING "FLOW RIGHT FACE " ON UNIT  53 AT TIME STEP 45, STRESS PERIOD   2
 UBDSV1 SAVING "FLOW FRONT FACE " ON UNIT  53 AT TIME STEP 45, STRESS PERIOD   2
1
              HEAD IN LAYER   1 AT END OF TIME STEP  45 IN STRESS PERIOD    2
  ---------------------------------------------------------------------------

            1           2           3           4           5           6           7           8           9          10
 ........................................................................................................................
   1    9.991       8.895       7.798       6.697       5.593       4.484       3.371       2.253       1.133      1.1219E-02
   2    9.991       8.895       7.798       6.697       5.593       4.484       3.371       2.253       1.133      1.1219E-02
   3    9.991       8.895       7.798       6.697       5.593       4.484       3.371       2.253       1.133      1.1219E-02
   4    9.991       8.895       7.798       6.697       5.593       4.484       3.371       2.253       1.133      1.1219E-02
   5    9.991       8.895       7.798       6.697       5.593       4.484       3.371       2.253       1.133      1.1219E-02
   6    9.991       8.895       7.798       6.697       5.593       4.484       3.371       2.253       1.133      1.1219E-02
   7    9.991       8.895       7.798       6.697       5.593       4.484       3.371       2.253       1.133      1.1219E-02
   8    9.991       8.895       7.798       6.697       5.593       4.484       3.371       2.253       1.133      1.1219E-02
   9    9.991       8.895       7.798       6.697       5.593       4.484       3.371       2.253       1.133      1.1219E-02
  10    9.991       8.895       7.798       6.697       5.593       4.484       3.371       2.253       1.133      1.1219E-02

 HEAD WILL BE SAVED ON UNIT   51 AT END OF TIME STEP   45, STRESS PERIOD    2

 DRAWDOWN WILL BE SAVED ON UNIT   52 AT END OF TIME STEP   45, STRESS PERIOD    2
1
  VOLUMETRIC BUDGET FOR ENTIRE MODEL AT END OF TIME STEP   45, STRESS PERIOD   2
  ------------------------------------------------------------------------------

     CUMULATIVE VOLUMES      L**3       RATES FOR THIS TIME STEP      L**3/T
     ------------------                 ------------------------

           IN:                                      IN:
           ---                                      ---
             STORAGE =       24886.6660               STORAGE =          13.0607
       CONSTANT HEAD =           0.0000         CONSTANT HEAD =           0.0000
               WELLS =           0.0000                 WELLS =           0.0000
     HEAD DEP BOUNDS =       17575.4570       HEAD DEP BOUNDS =         547.9071

            TOTAL IN =       42462.1250              TOTAL IN =         560.9678

          OUT:                                     OUT:
          ----                                     ----
             STORAGE =           0.0000               STORAGE =           0.0000
       CONSTANT HEAD =           0.0000         CONSTANT HEAD =           0.0000
               WELLS =           0.0000                 WELLS =           0.0000
     HEAD DEP BOUNDS =       42462.1094       HEAD DEP BOUNDS =         560.9568

           TOTAL OUT =       42462.1094             TOTAL OUT =         560.9568

            IN - OUT =       1.5625E-02              IN - OUT =       1.0986E-02

 PERCENT DISCREPANCY =           0.00     PERCENT DISCREPANCY =           0.00






         TIME SUMMARY AT END OF TIME STEP   45 IN STRESS PERIOD    2
                    SECONDS     MINUTES      HOURS       DAYS        YEARS
                    -----------------------------------------------------------
   TIME STEP LENGTH  86400.      1440.0      24.000      1.0000     2.73785E-03
 STRESS PERIOD TIME 3.88800E+06  64800.      1080.0      45.000     0.12320    
         TOTAL TIME 3.97440E+06  66240.      1104.0      46.000     0.12594    
1

 SOLVING FOR HEAD 

 OUTPUT CONTROL FOR STRESS PERIOD    2   TIME STEP   46
    SAVE HEAD FOR ALL LAYERS
    SAVE DRAWDOWN FOR ALL LAYERS
    SAVE BUDGET
    PRINT HEAD FOR ALL LAYERS
    PRINT BUDGET
 UBDSV1 SAVING "         STORAGE" ON UNIT  53 AT TIME STEP 46, STRESS PERIOD   2
 UBDSV2 SAVING "   CONSTANT HEAD" ON UNIT  53 AT TIME STEP 46, STRESS PERIOD   2
 UBDSV1 SAVING "FLOW RIGHT FACE " ON UNIT  53 AT TIME STEP 46, STRESS PERIOD   2
 UBDSV1 SAVING "FLOW FRONT FACE " ON UNIT  53 AT TIME STEP 46, STRESS PERIOD   2
1
              HEAD IN LAYER   1 AT END OF TIME STEP  46 IN STRESS PERIOD    2
  ---------------------------------------------------------------------------

            1           2           3           4           5           6           7           8           9          10
 ........................................................................................................................
   1    9.991       8.894       7.795       6.694       5.589       4.480       3.367       2.251       1.132      1.1205E-02
   2    9.991       8.894       7.795       6.694       5.589       4.480       3.367       2.251       1.132      1.1205E-02
   3    9.991       8.894       7.795       6.694       5.589       4.480       3.367       2.251       1.132      1.1205E-02
   4    9.991       8.894       7.795       6.694       5.589       4.480       3.367       2.251       1.132      1.1205E-02
   5    9.991       8.894       7.795       6.694       5.589       4.480       3.367       2.251       1.132      1.1205E-02
   6    9.991       8.894       7.795       6.694       5.589       4.480       3.367       2.251       1.132      1.1205E-02
   7    9.991       8.894       7.795       6.694       5.589       4.480       3.367       2.251       1.132      1.1205E-02
   8    9.991       8.894       7.795       6.694       5.589       4.480       3.367       2.251       1.132      1.1205E-02
   9    9.991       8.894       7.795       6.694       5.589       4.480       3.367       2.251       1.132      1.1205E-02
  10    9.991       8.894       7.795       6.694       5.589       4.480       3.367       2.251       1.132      1.1205E-02

 HEAD WILL BE SAVED ON UNIT   51 AT END OF TIME STEP   46, STRESS PERIOD    2

 DRAWDOWN WILL BE SAVED ON UNIT   52 AT END OF TIME STEP   46, STRESS PERIOD    2
1
  VOLUMETRIC BUDGET FOR ENTIRE MODEL AT END OF TIME STEP   46, STRESS PERIOD   2
  ------------------------------------------------------------------------------

     CUMULATIVE VOLUMES      L**3       RATES FOR THIS TIME STEP      L**3/T
     ------------------                 ------------------------

           IN:                                      IN:
           ---                                      ---
             STORAGE =       24898.3262               STORAGE =          11.6599
       CONSTANT HEAD =           0.0000         CONSTANT HEAD =           0.0000
               WELLS =           0.0000                 WELLS =           0.0000
     HEAD DEP BOUNDS =       18124.0586       HEAD DEP BOUNDS =         548.6011

            TOTAL IN =       43022.3828              TOTAL IN =         560.2610

          OUT:                                     OUT:
          ----                                     ----
             STORAGE =           0.0000               STORAGE =           0.0000
       CONSTANT HEAD =           0.0000         CONSTANT HEAD =           0.0000
               WELLS =           0.0000                 WELLS =           0.0000
     HEAD DEP BOUNDS =       43022.3672       HEAD DEP BOUNDS =         560.2563

           TOTAL OUT =       43022.3672             TOTAL OUT =         560.2563

            IN - OUT =       1.5625E-02              IN - OUT =       4.6387E-03

 PERCENT DISCREPANCY =           0.00     PERCENT DISCREPANCY =           0.00






         TIME SUMMARY AT END OF TIME STEP   46 IN STRESS PERIOD    2
                    SECONDS     MINUTES      HOURS       DAYS        YEARS
                    -----------------------------------------------------------
   TIME STEP LENGTH  86400.      1440.0      24.000      1.0000     2.73785E-03
 STRESS PERIOD TIME 3.97440E+06  66240.      1104.0      46.000     0.12594    
         TOTAL TIME 4.06080E+06  67680.      1128.0      47.000     0.12868    
1

 SOLVING FOR HEAD 

 OUTPUT CONTROL FOR STRESS PERIOD    2   TIME STEP   47
    SAVE HEAD FOR ALL LAYERS
    SAVE DRAWDOWN FOR ALL LAYERS
    SAVE BUDGET
    PRINT HEAD FOR ALL LAYERS
    PRINT BUDGET
 UBDSV1 SAVING "         STORAGE" ON UNIT  53 AT TIME STEP 47, STRESS PERIOD   2
 UBDSV2 SAVING "   CONSTANT HEAD" ON UNIT  53 AT TIME STEP 47, STRESS PERIOD   2
 UBDSV1 SAVING "FLOW RIGHT FACE " ON UNIT  53 AT TIME STEP 47, STRESS PERIOD   2
 UBDSV1 SAVING "FLOW FRONT FACE " ON UNIT  53 AT TIME STEP 47, STRESS PERIOD   2
1
              HEAD IN LAYER   1 AT END OF TIME STEP  47 IN STRESS PERIOD    2
  ---------------------------------------------------------------------------

            1           2           3           4           5           6           7           8           9          10
 ........................................................................................................................
   1    9.991       8.892       7.793       6.691       5.585       4.477       3.364       2.248       1.130      1.1193E-02
   2    9.991       8.892       7.793       6.691       5.585       4.477       3.364       2.248       1.130      1.1193E-02
   3    9.991       8.892       7.793       6.691       5.585       4.477       3.364       2.248       1.130      1.1193E-02
   4    9.991       8.892       7.793       6.691       5.585       4.477       3.364       2.248       1.130      1.1193E-02
   5    9.991       8.892       7.793       6.691       5.585       4.477       3.364       2.248       1.130      1.1193E-02
   6    9.991       8.892       7.793       6.691       5.585       4.477       3.364       2.248       1.130      1.1193E-02
   7    9.991       8.892       7.793       6.691       5.585       4.477       3.364       2.248       1.130      1.1193E-02
   8    9.991       8.892       7.793       6.691       5.585       4.477       3.364       2.248       1.130      1.1193E-02
   9    9.991       8.892       7.793       6.691       5.585       4.477       3.364       2.248       1.130      1.1193E-02
  10    9.991       8.892       7.793       6.691       5.585       4.477       3.364       2.248       1.130      1.1193E-02

 HEAD WILL BE SAVED ON UNIT   51 AT END OF TIME STEP   47, STRESS PERIOD    2

 DRAWDOWN WILL BE SAVED ON UNIT   52 AT END OF TIME STEP   47, STRESS PERIOD    2
1
  VOLUMETRIC BUDGET FOR ENTIRE MODEL AT END OF TIME STEP   47, STRESS PERIOD   2
  ------------------------------------------------------------------------------

     CUMULATIVE VOLUMES      L**3       RATES FOR THIS TIME STEP      L**3/T
     ------------------                 ------------------------

           IN:                                      IN:
           ---                                      ---
             STORAGE =       24908.7363               STORAGE =          10.4095
       CONSTANT HEAD =           0.0000         CONSTANT HEAD =           0.0000
               WELLS =           0.0000                 WELLS =           0.0000
     HEAD DEP BOUNDS =       18673.2793       HEAD DEP BOUNDS =         549.2206

            TOTAL IN =       43582.0156              TOTAL IN =         559.6301

          OUT:                                     OUT:
          ----                                     ----
             STORAGE =           0.0000               STORAGE =           0.0000
       CONSTANT HEAD =           0.0000         CONSTANT HEAD =           0.0000
               WELLS =           0.0000                 WELLS =           0.0000
     HEAD DEP BOUNDS =       43582.0000       HEAD DEP BOUNDS =         559.6310

           TOTAL OUT =       43582.0000             TOTAL OUT =         559.6310

            IN - OUT =       1.5625E-02              IN - OUT =      -9.7656E-04

 PERCENT DISCREPANCY =           0.00     PERCENT DISCREPANCY =          -0.00






         TIME SUMMARY AT END OF TIME STEP   47 IN STRESS PERIOD    2
                    SECONDS     MINUTES      HOURS       DAYS        YEARS
                    -----------------------------------------------------------
   TIME STEP LENGTH  86400.      1440.0      24.000      1.0000     2.73785E-03
 STRESS PERIOD TIME 4.06080E+06  67680.      1128.0      47.000     0.12868    
         TOTAL TIME 4.14720E+06  69120.      1152.0      48.000     0.13142    
1

 SOLVING FOR HEAD 

 OUTPUT CONTROL FOR STRESS PERIOD    2   TIME STEP   48
    SAVE HEAD FOR ALL LAYERS
    SAVE DRAWDOWN FOR ALL LAYERS
    SAVE BUDGET
    PRINT HEAD FOR ALL LAYERS
    PRINT BUDGET
 UBDSV1 SAVING "         STORAGE" ON UNIT  53 AT TIME STEP 48, STRESS PERIOD   2
 UBDSV2 SAVING "   CONSTANT HEAD" ON UNIT  53 AT TIME STEP 48, STRESS PERIOD   2
 UBDSV1 SAVING "FLOW RIGHT FACE " ON UNIT  53 AT TIME STEP 48, STRESS PERIOD   2
 UBDSV1 SAVING "FLOW FRONT FACE " ON UNIT  53 AT TIME STEP 48, STRESS PERIOD   2
1
              HEAD IN LAYER   1 AT END OF TIME STEP  48 IN STRESS PERIOD    2
  ---------------------------------------------------------------------------

            1           2           3           4           5           6           7           8           9          10
 ........................................................................................................................
   1    9.991       8.891       7.791       6.688       5.582       4.473       3.361       2.246       1.129      1.1181E-02
   2    9.991       8.891       7.791       6.688       5.582       4.473       3.361       2.246       1.129      1.1181E-02
   3    9.991       8.891       7.791       6.688       5.582       4.473       3.361       2.246       1.129      1.1181E-02
   4    9.991       8.891       7.791       6.688       5.582       4.473       3.361       2.246       1.129      1.1181E-02
   5    9.991       8.891       7.791       6.688       5.582       4.473       3.361       2.246       1.129      1.1181E-02
   6    9.991       8.891       7.791       6.688       5.582       4.473       3.361       2.246       1.129      1.1181E-02
   7    9.991       8.891       7.791       6.688       5.582       4.473       3.361       2.246       1.129      1.1181E-02
   8    9.991       8.891       7.791       6.688       5.582       4.473       3.361       2.246       1.129      1.1181E-02
   9    9.991       8.891       7.791       6.688       5.582       4.473       3.361       2.246       1.129      1.1181E-02
  10    9.991       8.891       7.791       6.688       5.582       4.473       3.361       2.246       1.129      1.1181E-02

 HEAD WILL BE SAVED ON UNIT   51 AT END OF TIME STEP   48, STRESS PERIOD    2

 DRAWDOWN WILL BE SAVED ON UNIT   52 AT END OF TIME STEP   48, STRESS PERIOD    2
1
  VOLUMETRIC BUDGET FOR ENTIRE MODEL AT END OF TIME STEP   48, STRESS PERIOD   2
  ------------------------------------------------------------------------------

     CUMULATIVE VOLUMES      L**3       RATES FOR THIS TIME STEP      L**3/T
     ------------------                 ------------------------

           IN:                                      IN:
           ---                                      ---
             STORAGE =       24918.0293               STORAGE =           9.2926
       CONSTANT HEAD =           0.0000         CONSTANT HEAD =           0.0000
               WELLS =           0.0000                 WELLS =           0.0000
     HEAD DEP BOUNDS =       19223.0527       HEAD DEP BOUNDS =         549.7736

            TOTAL IN =       44141.0820              TOTAL IN =         559.0662

          OUT:                                     OUT:
          ----                                     ----
             STORAGE =           0.0000               STORAGE =           0.0000
       CONSTANT HEAD =           0.0000         CONSTANT HEAD =           0.0000
               WELLS =           0.0000                 WELLS =           0.0000
     HEAD DEP BOUNDS =       44141.0742       HEAD DEP BOUNDS =         559.0728

           TOTAL OUT =       44141.0742             TOTAL OUT =         559.0728

            IN - OUT =       7.8125E-03              IN - OUT =      -6.5918E-03

 PERCENT DISCREPANCY =           0.00     PERCENT DISCREPANCY =          -0.00






         TIME SUMMARY AT END OF TIME STEP   48 IN STRESS PERIOD    2
                    SECONDS     MINUTES      HOURS       DAYS        YEARS
                    -----------------------------------------------------------
   TIME STEP LENGTH  86400.      1440.0      24.000      1.0000     2.73785E-03
 STRESS PERIOD TIME 4.14720E+06  69120.      1152.0      48.000     0.13142    
         TOTAL TIME 4.23360E+06  70560.      1176.0      49.000     0.13415    
1

 SOLVING FOR HEAD 

 OUTPUT CONTROL FOR STRESS PERIOD    2   TIME STEP   49
    SAVE HEAD FOR ALL LAYERS
    SAVE DRAWDOWN FOR ALL LAYERS
    SAVE BUDGET
    PRINT HEAD FOR ALL LAYERS
    PRINT BUDGET
 UBDSV1 SAVING "         STORAGE" ON UNIT  53 AT TIME STEP 49, STRESS PERIOD   2
 UBDSV2 SAVING "   CONSTANT HEAD" ON UNIT  53 AT TIME STEP 49, STRESS PERIOD   2
 UBDSV1 SAVING "FLOW RIGHT FACE " ON UNIT  53 AT TIME STEP 49, STRESS PERIOD   2
 UBDSV1 SAVING "FLOW FRONT FACE " ON UNIT  53 AT TIME STEP 49, STRESS PERIOD   2
1
              HEAD IN LAYER   1 AT END OF TIME STEP  49 IN STRESS PERIOD    2
  ---------------------------------------------------------------------------

            1           2           3           4           5           6           7           8           9          10
 ........................................................................................................................
   1    9.991       8.890       7.789       6.685       5.579       4.470       3.359       2.244       1.128      1.1171E-02
   2    9.991       8.890       7.789       6.685       5.579       4.470       3.359       2.244       1.128      1.1171E-02
   3    9.991       8.890       7.789       6.685       5.579       4.470       3.359       2.244       1.128      1.1171E-02
   4    9.991       8.890       7.789       6.685       5.579       4.470       3.359       2.244       1.128      1.1171E-02
   5    9.991       8.890       7.789       6.685       5.579       4.470       3.359       2.244       1.128      1.1171E-02
   6    9.991       8.890       7.789       6.685       5.579       4.470       3.359       2.244       1.128      1.1171E-02
   7    9.991       8.890       7.789       6.685       5.579       4.470       3.359       2.244       1.128      1.1171E-02
   8    9.991       8.890       7.789       6.685       5.579       4.470       3.359       2.244       1.128      1.1171E-02
   9    9.991       8.890       7.789       6.685       5.579       4.470       3.359       2.244       1.128      1.1171E-02
  10    9.991       8.890       7.789       6.685       5.579       4.470       3.359       2.244       1.128      1.1171E-02

 HEAD WILL BE SAVED ON UNIT   51 AT END OF TIME STEP   49, STRESS PERIOD    2

 DRAWDOWN WILL BE SAVED ON UNIT   52 AT END OF TIME STEP   49, STRESS PERIOD    2
1
  VOLUMETRIC BUDGET FOR ENTIRE MODEL AT END OF TIME STEP   49, STRESS PERIOD   2
  ------------------------------------------------------------------------------

     CUMULATIVE VOLUMES      L**3       RATES FOR THIS TIME STEP      L**3/T
     ------------------                 ------------------------

           IN:                                      IN:
           ---                                      ---
             STORAGE =       24926.3262               STORAGE =           8.2962
       CONSTANT HEAD =           0.0000         CONSTANT HEAD =           0.0000
               WELLS =           0.0000                 WELLS =           0.0000
     HEAD DEP BOUNDS =       19773.3203       HEAD DEP BOUNDS =         550.2673

            TOTAL IN =       44699.6484              TOTAL IN =         558.5635

          OUT:                                     OUT:
          ----                                     ----
             STORAGE =           0.0000               STORAGE =           0.0000
       CONSTANT HEAD =           0.0000         CONSTANT HEAD =           0.0000
               WELLS =           0.0000                 WELLS =           0.0000
     HEAD DEP BOUNDS =       44699.6484       HEAD DEP BOUNDS =         558.5744

           TOTAL OUT =       44699.6484             TOTAL OUT =         558.5744

            IN - OUT =           0.0000              IN - OUT =      -1.0925E-02

 PERCENT DISCREPANCY =           0.00     PERCENT DISCREPANCY =          -0.00






         TIME SUMMARY AT END OF TIME STEP   49 IN STRESS PERIOD    2
                    SECONDS     MINUTES      HOURS       DAYS        YEARS
                    -----------------------------------------------------------
   TIME STEP LENGTH  86400.      1440.0      24.000      1.0000     2.73785E-03
 STRESS PERIOD TIME 4.23360E+06  70560.      1176.0      49.000     0.13415    
         TOTAL TIME 4.32000E+06  72000.      1200.0      50.000     0.13689    
1

 SOLVING FOR HEAD 

 OUTPUT CONTROL FOR STRESS PERIOD    2   TIME STEP   50
    SAVE HEAD FOR ALL LAYERS
    SAVE DRAWDOWN FOR ALL LAYERS
    SAVE BUDGET
    PRINT HEAD FOR ALL LAYERS
    PRINT BUDGET
 UBDSV1 SAVING "         STORAGE" ON UNIT  53 AT TIME STEP 50, STRESS PERIOD   2
 UBDSV2 SAVING "   CONSTANT HEAD" ON UNIT  53 AT TIME STEP 50, STRESS PERIOD   2
 UBDSV1 SAVING "FLOW RIGHT FACE " ON UNIT  53 AT TIME STEP 50, STRESS PERIOD   2
 UBDSV1 SAVING "FLOW FRONT FACE " ON UNIT  53 AT TIME STEP 50, STRESS PERIOD   2
1
              HEAD IN LAYER   1 AT END OF TIME STEP  50 IN STRESS PERIOD    2
  ---------------------------------------------------------------------------

            1           2           3           4           5           6           7           8           9          10
 ........................................................................................................................
   1    9.991       8.889       7.787       6.683       5.577       4.468       3.356       2.243       1.127      1.1163E-02
   2    9.991       8.889       7.787       6.683       5.577       4.468       3.356       2.243       1.127      1.1163E-02
   3    9.991       8.889       7.787       6.683       5.577       4.468       3.356       2.243       1.127      1.1163E-02
   4    9.991       8.889       7.787       6.683       5.577       4.468       3.356       2.243       1.127      1.1163E-02
   5    9.991       8.889       7.787       6.683       5.577       4.468       3.356       2.243       1.127      1.1163E-02
   6    9.991       8.889       7.787       6.683       5.577       4.468       3.356       2.243       1.127      1.1163E-02
   7    9.991       8.889       7.787       6.683       5.577       4.468       3.356       2.243       1.127      1.1163E-02
   8    9.991       8.889       7.787       6.683       5.577       4.468       3.356       2.243       1.127      1.1163E-02
   9    9.991       8.889       7.787       6.683       5.577       4.468       3.356       2.243       1.127      1.1163E-02
  10    9.991       8.889       7.787       6.683       5.577       4.468       3.356       2.243       1.127      1.1163E-02

 HEAD WILL BE SAVED ON UNIT   51 AT END OF TIME STEP   50, STRESS PERIOD    2

 DRAWDOWN WILL BE SAVED ON UNIT   52 AT END OF TIME STEP   50, STRESS PERIOD    2
1
  VOLUMETRIC BUDGET FOR ENTIRE MODEL AT END OF TIME STEP   50, STRESS PERIOD   2
  ------------------------------------------------------------------------------

     CUMULATIVE VOLUMES      L**3       RATES FOR THIS TIME STEP      L**3/T
     ------------------                 ------------------------

           IN:                                      IN:
           ---                                      ---
             STORAGE =       24933.7324               STORAGE =           7.4060
       CONSTANT HEAD =           0.0000         CONSTANT HEAD =           0.0000
               WELLS =           0.0000                 WELLS =           0.0000
     HEAD DEP BOUNDS =       20324.0293       HEAD DEP BOUNDS =         550.7081

            TOTAL IN =       45257.7617              TOTAL IN =         558.1140

          OUT:                                     OUT:
          ----                                     ----
             STORAGE =           0.0000               STORAGE =           0.0000
       CONSTANT HEAD =           0.0000         CONSTANT HEAD =           0.0000
               WELLS =           0.0000                 WELLS =           0.0000
     HEAD DEP BOUNDS =       45257.7773       HEAD DEP BOUNDS =         558.1295

           TOTAL OUT =       45257.7773             TOTAL OUT =         558.1295

            IN - OUT =      -1.5625E-02              IN - OUT =      -1.5503E-02

 PERCENT DISCREPANCY =          -0.00     PERCENT DISCREPANCY =          -0.00






         TIME SUMMARY AT END OF TIME STEP   50 IN STRESS PERIOD    2
                    SECONDS     MINUTES      HOURS       DAYS        YEARS
                    -----------------------------------------------------------
   TIME STEP LENGTH  86400.      1440.0      24.000      1.0000     2.73785E-03
 STRESS PERIOD TIME 4.32000E+06  72000.      1200.0      50.000     0.13689    
         TOTAL TIME 4.40640E+06  73440.      1224.0      51.000     0.13963    
1

 SOLVING FOR HEAD 

 OUTPUT CONTROL FOR STRESS PERIOD    2   TIME STEP   51
    SAVE HEAD FOR ALL LAYERS
    SAVE DRAWDOWN FOR ALL LAYERS
    SAVE BUDGET
    PRINT HEAD FOR ALL LAYERS
    PRINT BUDGET
 UBDSV1 SAVING "         STORAGE" ON UNIT  53 AT TIME STEP 51, STRESS PERIOD   2
 UBDSV2 SAVING "   CONSTANT HEAD" ON UNIT  53 AT TIME STEP 51, STRESS PERIOD   2
 UBDSV1 SAVING "FLOW RIGHT FACE " ON UNIT  53 AT TIME STEP 51, STRESS PERIOD   2
 UBDSV1 SAVING "FLOW FRONT FACE " ON UNIT  53 AT TIME STEP 51, STRESS PERIOD   2
1
              HEAD IN LAYER   1 AT END OF TIME STEP  51 IN STRESS PERIOD    2
  ---------------------------------------------------------------------------

            1           2           3           4           5           6           7           8           9          10
 ........................................................................................................................
   1    9.991       8.889       7.786       6.681       5.574       4.466       3.354       2.241       1.127      1.1155E-02
   2    9.991       8.889       7.786       6.681       5.574       4.466       3.354       2.241       1.127      1.1155E-02
   3    9.991       8.889       7.786       6.681       5.574       4.466       3.354       2.241       1.127      1.1155E-02
   4    9.991       8.889       7.786       6.681       5.574       4.466       3.354       2.241       1.127      1.1155E-02
   5    9.991       8.889       7.786       6.681       5.574       4.466       3.354       2.241       1.127      1.1155E-02
   6    9.991       8.889       7.786       6.681       5.574       4.466       3.354       2.241       1.127      1.1155E-02
   7    9.991       8.889       7.786       6.681       5.574       4.466       3.354       2.241       1.127      1.1155E-02
   8    9.991       8.889       7.786       6.681       5.574       4.466       3.354       2.241       1.127      1.1155E-02
   9    9.991       8.889       7.786       6.681       5.574       4.466       3.354       2.241       1.127      1.1155E-02
  10    9.991       8.889       7.786       6.681       5.574       4.466       3.354       2.241       1.127      1.1155E-02

 HEAD WILL BE SAVED ON UNIT   51 AT END OF TIME STEP   51, STRESS PERIOD    2

 DRAWDOWN WILL BE SAVED ON UNIT   52 AT END OF TIME STEP   51, STRESS PERIOD    2
1
  VOLUMETRIC BUDGET FOR ENTIRE MODEL AT END OF TIME STEP   51, STRESS PERIOD   2
  ------------------------------------------------------------------------------

     CUMULATIVE VOLUMES      L**3       RATES FOR THIS TIME STEP      L**3/T
     ------------------                 ------------------------

           IN:                                      IN:
           ---                                      ---
             STORAGE =       24940.3438               STORAGE =           6.6115
       CONSTANT HEAD =           0.0000         CONSTANT HEAD =           0.0000
               WELLS =           0.0000                 WELLS =           0.0000
     HEAD DEP BOUNDS =       20875.1309       HEAD DEP BOUNDS =         551.1014

            TOTAL IN =       45815.4766              TOTAL IN =         557.7130

          OUT:                                     OUT:
          ----                                     ----
             STORAGE =           0.0000               STORAGE =           0.0000
       CONSTANT HEAD =           0.0000         CONSTANT HEAD =           0.0000
               WELLS =           0.0000                 WELLS =           0.0000
     HEAD DEP BOUNDS =       45815.5078       HEAD DEP BOUNDS =         557.7323

           TOTAL OUT =       45815.5078             TOTAL OUT =         557.7323

            IN - OUT =      -3.1250E-02              IN - OUT =      -1.9348E-02

 PERCENT DISCREPANCY =          -0.00     PERCENT DISCREPANCY =          -0.00






         TIME SUMMARY AT END OF TIME STEP   51 IN STRESS PERIOD    2
                    SECONDS     MINUTES      HOURS       DAYS        YEARS
                    -----------------------------------------------------------
   TIME STEP LENGTH  86400.      1440.0      24.000      1.0000     2.73785E-03
 STRESS PERIOD TIME 4.40640E+06  73440.      1224.0      51.000     0.13963    
         TOTAL TIME 4.49280E+06  74880.      1248.0      52.000     0.14237    
1

 SOLVING FOR HEAD 

 OUTPUT CONTROL FOR STRESS PERIOD    2   TIME STEP   52
    SAVE HEAD FOR ALL LAYERS
    SAVE DRAWDOWN FOR ALL LAYERS
    SAVE BUDGET
    PRINT HEAD FOR ALL LAYERS
    PRINT BUDGET
 UBDSV1 SAVING "         STORAGE" ON UNIT  53 AT TIME STEP 52, STRESS PERIOD   2
 UBDSV2 SAVING "   CONSTANT HEAD" ON UNIT  53 AT TIME STEP 52, STRESS PERIOD   2
 UBDSV1 SAVING "FLOW RIGHT FACE " ON UNIT  53 AT TIME STEP 52, STRESS PERIOD   2
 UBDSV1 SAVING "FLOW FRONT FACE " ON UNIT  53 AT TIME STEP 52, STRESS PERIOD   2
1
              HEAD IN LAYER   1 AT END OF TIME STEP  52 IN STRESS PERIOD    2
  ---------------------------------------------------------------------------

            1           2           3           4           5           6           7           8           9          10
 ........................................................................................................................
   1    9.991       8.888       7.784       6.679       5.572       4.464       3.353       2.240       1.126      1.1148E-02
   2    9.991       8.888       7.784       6.679       5.572       4.464       3.353       2.240       1.126      1.1148E-02
   3    9.991       8.888       7.784       6.679       5.572       4.464       3.353       2.240       1.126      1.1148E-02
   4    9.991       8.888       7.784       6.679       5.572       4.464       3.353       2.240       1.126      1.1148E-02
   5    9.991       8.888       7.784       6.679       5.572       4.464       3.353       2.240       1.126      1.1148E-02
   6    9.991       8.888       7.784       6.679       5.572       4.464       3.353       2.240       1.126      1.1148E-02
   7    9.991       8.888       7.784       6.679       5.572       4.464       3.353       2.240       1.126      1.1148E-02
   8    9.991       8.888       7.784       6.679       5.572       4.464       3.353       2.240       1.126      1.1148E-02
   9    9.991       8.888       7.784       6.679       5.572       4.464       3.353       2.240       1.126      1.1148E-02
  10    9.991       8.888       7.784       6.679       5.572       4.464       3.353       2.240       1.126      1.1148E-02

 HEAD WILL BE SAVED ON UNIT   51 AT END OF TIME STEP   52, STRESS PERIOD    2

 DRAWDOWN WILL BE SAVED ON UNIT   52 AT END OF TIME STEP   52, STRESS PERIOD    2
1
  VOLUMETRIC BUDGET FOR ENTIRE MODEL AT END OF TIME STEP   52, STRESS PERIOD   2
  ------------------------------------------------------------------------------

     CUMULATIVE VOLUMES      L**3       RATES FOR THIS TIME STEP      L**3/T
     ------------------                 ------------------------

           IN:                                      IN:
           ---                                      ---
             STORAGE =       24946.2480               STORAGE =           5.9036
       CONSTANT HEAD =           0.0000         CONSTANT HEAD =           0.0000
               WELLS =           0.0000                 WELLS =           0.0000
     HEAD DEP BOUNDS =       21426.6230       HEAD DEP BOUNDS =         551.4913

            TOTAL IN =       46372.8711              TOTAL IN =         557.3949

          OUT:                                     OUT:
          ----                                     ----
             STORAGE =           0.0000               STORAGE =           0.0000
       CONSTANT HEAD =           0.0000         CONSTANT HEAD =           0.0000
               WELLS =           0.0000                 WELLS =           0.0000
     HEAD DEP BOUNDS =       46372.8867       HEAD DEP BOUNDS =         557.3777

           TOTAL OUT =       46372.8867             TOTAL OUT =         557.3777

            IN - OUT =      -1.5625E-02              IN - OUT =       1.7212E-02

 PERCENT DISCREPANCY =          -0.00     PERCENT DISCREPANCY =           0.00






         TIME SUMMARY AT END OF TIME STEP   52 IN STRESS PERIOD    2
                    SECONDS     MINUTES      HOURS       DAYS        YEARS
                    -----------------------------------------------------------
   TIME STEP LENGTH  86400.      1440.0      24.000      1.0000     2.73785E-03
 STRESS PERIOD TIME 4.49280E+06  74880.      1248.0      52.000     0.14237    
         TOTAL TIME 4.57920E+06  76320.      1272.0      53.000     0.14511    
1

 SOLVING FOR HEAD 

 OUTPUT CONTROL FOR STRESS PERIOD    2   TIME STEP   53
    SAVE HEAD FOR ALL LAYERS
    SAVE DRAWDOWN FOR ALL LAYERS
    SAVE BUDGET
    PRINT HEAD FOR ALL LAYERS
    PRINT BUDGET
 UBDSV1 SAVING "         STORAGE" ON UNIT  53 AT TIME STEP 53, STRESS PERIOD   2
 UBDSV2 SAVING "   CONSTANT HEAD" ON UNIT  53 AT TIME STEP 53, STRESS PERIOD   2
 UBDSV1 SAVING "FLOW RIGHT FACE " ON UNIT  53 AT TIME STEP 53, STRESS PERIOD   2
 UBDSV1 SAVING "FLOW FRONT FACE " ON UNIT  53 AT TIME STEP 53, STRESS PERIOD   2
1
              HEAD IN LAYER   1 AT END OF TIME STEP  53 IN STRESS PERIOD    2
  ---------------------------------------------------------------------------

            1           2           3           4           5           6           7           8           9          10
 ........................................................................................................................
   1    9.991       8.887       7.783       6.678       5.571       4.462       3.351       2.239       1.125      1.1141E-02
   2    9.991       8.887       7.783       6.678       5.571       4.462       3.351       2.239       1.125      1.1141E-02
   3    9.991       8.887       7.783       6.678       5.571       4.462       3.351       2.239       1.125      1.1141E-02
   4    9.991       8.887       7.783       6.678       5.571       4.462       3.351       2.239       1.125      1.1141E-02
   5    9.991       8.887       7.783       6.678       5.571       4.462       3.351       2.239       1.125      1.1141E-02
   6    9.991       8.887       7.783       6.678       5.571       4.462       3.351       2.239       1.125      1.1141E-02
   7    9.991       8.887       7.783       6.678       5.571       4.462       3.351       2.239       1.125      1.1141E-02
   8    9.991       8.887       7.783       6.678       5.571       4.462       3.351       2.239       1.125      1.1141E-02
   9    9.991       8.887       7.783       6.678       5.571       4.462       3.351       2.239       1.125      1.1141E-02
  10    9.991       8.887       7.783       6.678       5.571       4.462       3.351       2.239       1.125      1.1141E-02

 HEAD WILL BE SAVED ON UNIT   51 AT END OF TIME STEP   53, STRESS PERIOD    2

 DRAWDOWN WILL BE SAVED ON UNIT   52 AT END OF TIME STEP   53, STRESS PERIOD    2
1
  VOLUMETRIC BUDGET FOR ENTIRE MODEL AT END OF TIME STEP   53, STRESS PERIOD   2
  ------------------------------------------------------------------------------

     CUMULATIVE VOLUMES      L**3       RATES FOR THIS TIME STEP      L**3/T
     ------------------                 ------------------------

           IN:                                      IN:
           ---                                      ---
             STORAGE =       24951.5176               STORAGE =           5.2696
       CONSTANT HEAD =           0.0000         CONSTANT HEAD =           0.0000
               WELLS =           0.0000                 WELLS =           0.0000
     HEAD DEP BOUNDS =       21978.4277       HEAD DEP BOUNDS =         551.8049

            TOTAL IN =       46929.9453              TOTAL IN =         557.0745

          OUT:                                     OUT:
          ----                                     ----
             STORAGE =           0.0000               STORAGE =           0.0000
       CONSTANT HEAD =           0.0000         CONSTANT HEAD =           0.0000
               WELLS =           0.0000                 WELLS =           0.0000
     HEAD DEP BOUNDS =       46929.9492       HEAD DEP BOUNDS =         557.0612

           TOTAL OUT =       46929.9492             TOTAL OUT =         557.0612

            IN - OUT =      -3.9062E-03              IN - OUT =       1.3367E-02

 PERCENT DISCREPANCY =          -0.00     PERCENT DISCREPANCY =           0.00






         TIME SUMMARY AT END OF TIME STEP   53 IN STRESS PERIOD    2
                    SECONDS     MINUTES      HOURS       DAYS        YEARS
                    -----------------------------------------------------------
   TIME STEP LENGTH  86400.      1440.0      24.000      1.0000     2.73785E-03
 STRESS PERIOD TIME 4.57920E+06  76320.      1272.0      53.000     0.14511    
         TOTAL TIME 4.66560E+06  77760.      1296.0      54.000     0.14784    
1

 SOLVING FOR HEAD 

 OUTPUT CONTROL FOR STRESS PERIOD    2   TIME STEP   54
    SAVE HEAD FOR ALL LAYERS
    SAVE DRAWDOWN FOR ALL LAYERS
    SAVE BUDGET
    PRINT HEAD FOR ALL LAYERS
    PRINT BUDGET
 UBDSV1 SAVING "         STORAGE" ON UNIT  53 AT TIME STEP 54, STRESS PERIOD   2
 UBDSV2 SAVING "   CONSTANT HEAD" ON UNIT  53 AT TIME STEP 54, STRESS PERIOD   2
 UBDSV1 SAVING "FLOW RIGHT FACE " ON UNIT  53 AT TIME STEP 54, STRESS PERIOD   2
 UBDSV1 SAVING "FLOW FRONT FACE " ON UNIT  53 AT TIME STEP 54, STRESS PERIOD   2
1
              HEAD IN LAYER   1 AT END OF TIME STEP  54 IN STRESS PERIOD    2
  ---------------------------------------------------------------------------

            1           2           3           4           5           6           7           8           9          10
 ........................................................................................................................
   1    9.991       8.887       7.782       6.676       5.569       4.460       3.350       2.238       1.125      1.1136E-02
   2    9.991       8.887       7.782       6.676       5.569       4.460       3.350       2.238       1.125      1.1136E-02
   3    9.991       8.887       7.782       6.676       5.569       4.460       3.350       2.238       1.125      1.1136E-02
   4    9.991       8.887       7.782       6.676       5.569       4.460       3.350       2.238       1.125      1.1136E-02
   5    9.991       8.887       7.782       6.676       5.569       4.460       3.350       2.238       1.125      1.1136E-02
   6    9.991       8.887       7.782       6.676       5.569       4.460       3.350       2.238       1.125      1.1136E-02
   7    9.991       8.887       7.782       6.676       5.569       4.460       3.350       2.238       1.125      1.1136E-02
   8    9.991       8.887       7.782       6.676       5.569       4.460       3.350       2.238       1.125      1.1136E-02
   9    9.991       8.887       7.782       6.676       5.569       4.460       3.350       2.238       1.125      1.1136E-02
  10    9.991       8.887       7.782       6.676       5.569       4.460       3.350       2.238       1.125      1.1136E-02

 HEAD WILL BE SAVED ON UNIT   51 AT END OF TIME STEP   54, STRESS PERIOD    2

 DRAWDOWN WILL BE SAVED ON UNIT   52 AT END OF TIME STEP   54, STRESS PERIOD    2
1
  VOLUMETRIC BUDGET FOR ENTIRE MODEL AT END OF TIME STEP   54, STRESS PERIOD   2
  ------------------------------------------------------------------------------

     CUMULATIVE VOLUMES      L**3       RATES FOR THIS TIME STEP      L**3/T
     ------------------                 ------------------------

           IN:                                      IN:
           ---                                      ---
             STORAGE =       24956.2227               STORAGE =           4.7047
       CONSTANT HEAD =           0.0000         CONSTANT HEAD =           0.0000
               WELLS =           0.0000                 WELLS =           0.0000
     HEAD DEP BOUNDS =       22530.5117       HEAD DEP BOUNDS =         552.0850

            TOTAL IN =       47486.7344              TOTAL IN =         556.7897

          OUT:                                     OUT:
          ----                                     ----
             STORAGE =           0.0000               STORAGE =           0.0000
       CONSTANT HEAD =           0.0000         CONSTANT HEAD =           0.0000
               WELLS =           0.0000                 WELLS =           0.0000
     HEAD DEP BOUNDS =       47486.7266       HEAD DEP BOUNDS =         556.7785

           TOTAL OUT =       47486.7266             TOTAL OUT =         556.7785

            IN - OUT =       7.8125E-03              IN - OUT =       1.1169E-02

 PERCENT DISCREPANCY =           0.00     PERCENT DISCREPANCY =           0.00






         TIME SUMMARY AT END OF TIME STEP   54 IN STRESS PERIOD    2
                    SECONDS     MINUTES      HOURS       DAYS        YEARS
                    -----------------------------------------------------------
   TIME STEP LENGTH  86400.      1440.0      24.000      1.0000     2.73785E-03
 STRESS PERIOD TIME 4.66560E+06  77760.      1296.0      54.000     0.14784    
         TOTAL TIME 4.75200E+06  79200.      1320.0      55.000     0.15058    
1

 SOLVING FOR HEAD 

 OUTPUT CONTROL FOR STRESS PERIOD    2   TIME STEP   55
    SAVE HEAD FOR ALL LAYERS
    SAVE DRAWDOWN FOR ALL LAYERS
    SAVE BUDGET
    PRINT HEAD FOR ALL LAYERS
    PRINT BUDGET
 UBDSV1 SAVING "         STORAGE" ON UNIT  53 AT TIME STEP 55, STRESS PERIOD   2
 UBDSV2 SAVING "   CONSTANT HEAD" ON UNIT  53 AT TIME STEP 55, STRESS PERIOD   2
 UBDSV1 SAVING "FLOW RIGHT FACE " ON UNIT  53 AT TIME STEP 55, STRESS PERIOD   2
 UBDSV1 SAVING "FLOW FRONT FACE " ON UNIT  53 AT TIME STEP 55, STRESS PERIOD   2
1
              HEAD IN LAYER   1 AT END OF TIME STEP  55 IN STRESS PERIOD    2
  ---------------------------------------------------------------------------

            1           2           3           4           5           6           7           8           9          10
 ........................................................................................................................
   1    9.991       8.886       7.781       6.675       5.567       4.459       3.348       2.237       1.124      1.1131E-02
   2    9.991       8.886       7.781       6.675       5.567       4.459       3.348       2.237       1.124      1.1131E-02
   3    9.991       8.886       7.781       6.675       5.567       4.459       3.348       2.237       1.124      1.1131E-02
   4    9.991       8.886       7.781       6.675       5.567       4.459       3.348       2.237       1.124      1.1131E-02
   5    9.991       8.886       7.781       6.675       5.567       4.459       3.348       2.237       1.124      1.1131E-02
   6    9.991       8.886       7.781       6.675       5.567       4.459       3.348       2.237       1.124      1.1131E-02
   7    9.991       8.886       7.781       6.675       5.567       4.459       3.348       2.237       1.124      1.1131E-02
   8    9.991       8.886       7.781       6.675       5.567       4.459       3.348       2.237       1.124      1.1131E-02
   9    9.991       8.886       7.781       6.675       5.567       4.459       3.348       2.237       1.124      1.1131E-02
  10    9.991       8.886       7.781       6.675       5.567       4.459       3.348       2.237       1.124      1.1131E-02

 HEAD WILL BE SAVED ON UNIT   51 AT END OF TIME STEP   55, STRESS PERIOD    2

 DRAWDOWN WILL BE SAVED ON UNIT   52 AT END OF TIME STEP   55, STRESS PERIOD    2
1
  VOLUMETRIC BUDGET FOR ENTIRE MODEL AT END OF TIME STEP   55, STRESS PERIOD   2
  ------------------------------------------------------------------------------

     CUMULATIVE VOLUMES      L**3       RATES FOR THIS TIME STEP      L**3/T
     ------------------                 ------------------------

           IN:                                      IN:
           ---                                      ---
             STORAGE =       24960.4219               STORAGE =           4.2001
       CONSTANT HEAD =           0.0000         CONSTANT HEAD =           0.0000
               WELLS =           0.0000                 WELLS =           0.0000
     HEAD DEP BOUNDS =       23082.8477       HEAD DEP BOUNDS =         552.3350

            TOTAL IN =       48043.2695              TOTAL IN =         556.5351

          OUT:                                     OUT:
          ----                                     ----
             STORAGE =           0.0000               STORAGE =           0.0000
       CONSTANT HEAD =           0.0000         CONSTANT HEAD =           0.0000
               WELLS =           0.0000                 WELLS =           0.0000
     HEAD DEP BOUNDS =       48043.2539       HEAD DEP BOUNDS =         556.5262

           TOTAL OUT =       48043.2539             TOTAL OUT =         556.5262

            IN - OUT =       1.5625E-02              IN - OUT =       8.9111E-03

 PERCENT DISCREPANCY =           0.00     PERCENT DISCREPANCY =           0.00






         TIME SUMMARY AT END OF TIME STEP   55 IN STRESS PERIOD    2
                    SECONDS     MINUTES      HOURS       DAYS        YEARS
                    -----------------------------------------------------------
   TIME STEP LENGTH  86400.      1440.0      24.000      1.0000     2.73785E-03
 STRESS PERIOD TIME 4.75200E+06  79200.      1320.0      55.000     0.15058    
         TOTAL TIME 4.83840E+06  80640.      1344.0      56.000     0.15332    
1

 SOLVING FOR HEAD 

 OUTPUT CONTROL FOR STRESS PERIOD    2   TIME STEP   56
    SAVE HEAD FOR ALL LAYERS
    SAVE DRAWDOWN FOR ALL LAYERS
    SAVE BUDGET
    PRINT HEAD FOR ALL LAYERS
    PRINT BUDGET
 UBDSV1 SAVING "         STORAGE" ON UNIT  53 AT TIME STEP 56, STRESS PERIOD   2
 UBDSV2 SAVING "   CONSTANT HEAD" ON UNIT  53 AT TIME STEP 56, STRESS PERIOD   2
 UBDSV1 SAVING "FLOW RIGHT FACE " ON UNIT  53 AT TIME STEP 56, STRESS PERIOD   2
 UBDSV1 SAVING "FLOW FRONT FACE " ON UNIT  53 AT TIME STEP 56, STRESS PERIOD   2
1
              HEAD IN LAYER   1 AT END OF TIME STEP  56 IN STRESS PERIOD    2
  ---------------------------------------------------------------------------

            1           2           3           4           5           6           7           8           9          10
 ........................................................................................................................
   1    9.991       8.886       7.780       6.674       5.566       4.457       3.347       2.236       1.124      1.1126E-02
   2    9.991       8.886       7.780       6.674       5.566       4.457       3.347       2.236       1.124      1.1126E-02
   3    9.991       8.886       7.780       6.674       5.566       4.457       3.347       2.236       1.124      1.1126E-02
   4    9.991       8.886       7.780       6.674       5.566       4.457       3.347       2.236       1.124      1.1126E-02
   5    9.991       8.886       7.780       6.674       5.566       4.457       3.347       2.236       1.124      1.1126E-02
   6    9.991       8.886       7.780       6.674       5.566       4.457       3.347       2.236       1.124      1.1126E-02
   7    9.991       8.886       7.780       6.674       5.566       4.457       3.347       2.236       1.124      1.1126E-02
   8    9.991       8.886       7.780       6.674       5.566       4.457       3.347       2.236       1.124      1.1126E-02
   9    9.991       8.886       7.780       6.674       5.566       4.457       3.347       2.236       1.124      1.1126E-02
  10    9.991       8.886       7.780       6.674       5.566       4.457       3.347       2.236       1.124      1.1126E-02

 HEAD WILL BE SAVED ON UNIT   51 AT END OF TIME STEP   56, STRESS PERIOD    2

 DRAWDOWN WILL BE SAVED ON UNIT   52 AT END OF TIME STEP   56, STRESS PERIOD    2
1
  VOLUMETRIC BUDGET FOR ENTIRE MODEL AT END OF TIME STEP   56, STRESS PERIOD   2
  ------------------------------------------------------------------------------

     CUMULATIVE VOLUMES      L**3       RATES FOR THIS TIME STEP      L**3/T
     ------------------                 ------------------------

           IN:                                      IN:
           ---                                      ---
             STORAGE =       24964.1719               STORAGE =           3.7493
       CONSTANT HEAD =           0.0000         CONSTANT HEAD =           0.0000
               WELLS =           0.0000                 WELLS =           0.0000
     HEAD DEP BOUNDS =       23635.4062       HEAD DEP BOUNDS =         552.5582

            TOTAL IN =       48599.5781              TOTAL IN =         556.3074

          OUT:                                     OUT:
          ----                                     ----
             STORAGE =           0.0000               STORAGE =           0.0000
       CONSTANT HEAD =           0.0000         CONSTANT HEAD =           0.0000
               WELLS =           0.0000                 WELLS =           0.0000
     HEAD DEP BOUNDS =       48599.5547       HEAD DEP BOUNDS =         556.3010

           TOTAL OUT =       48599.5547             TOTAL OUT =         556.3010

            IN - OUT =       2.3438E-02              IN - OUT =       6.4697E-03

 PERCENT DISCREPANCY =           0.00     PERCENT DISCREPANCY =           0.00






         TIME SUMMARY AT END OF TIME STEP   56 IN STRESS PERIOD    2
                    SECONDS     MINUTES      HOURS       DAYS        YEARS
                    -----------------------------------------------------------
   TIME STEP LENGTH  86400.      1440.0      24.000      1.0000     2.73785E-03
 STRESS PERIOD TIME 4.83840E+06  80640.      1344.0      56.000     0.15332    
         TOTAL TIME 4.92480E+06  82080.      1368.0      57.000     0.15606    
1

 SOLVING FOR HEAD 

 OUTPUT CONTROL FOR STRESS PERIOD    2   TIME STEP   57
    SAVE HEAD FOR ALL LAYERS
    SAVE DRAWDOWN FOR ALL LAYERS
    SAVE BUDGET
    PRINT HEAD FOR ALL LAYERS
    PRINT BUDGET
 UBDSV1 SAVING "         STORAGE" ON UNIT  53 AT TIME STEP 57, STRESS PERIOD   2
 UBDSV2 SAVING "   CONSTANT HEAD" ON UNIT  53 AT TIME STEP 57, STRESS PERIOD   2
 UBDSV1 SAVING "FLOW RIGHT FACE " ON UNIT  53 AT TIME STEP 57, STRESS PERIOD   2
 UBDSV1 SAVING "FLOW FRONT FACE " ON UNIT  53 AT TIME STEP 57, STRESS PERIOD   2
1
              HEAD IN LAYER   1 AT END OF TIME STEP  57 IN STRESS PERIOD    2
  ---------------------------------------------------------------------------

            1           2           3           4           5           6           7           8           9          10
 ........................................................................................................................
   1    9.991       8.885       7.779       6.673       5.565       4.456       3.346       2.235       1.123      1.1122E-02
   2    9.991       8.885       7.779       6.673       5.565       4.456       3.346       2.235       1.123      1.1122E-02
   3    9.991       8.885       7.779       6.673       5.565       4.456       3.346       2.235       1.123      1.1122E-02
   4    9.991       8.885       7.779       6.673       5.565       4.456       3.346       2.235       1.123      1.1122E-02
   5    9.991       8.885       7.779       6.673       5.565       4.456       3.346       2.235       1.123      1.1122E-02
   6    9.991       8.885       7.779       6.673       5.565       4.456       3.346       2.235       1.123      1.1122E-02
   7    9.991       8.885       7.779       6.673       5.565       4.456       3.346       2.235       1.123      1.1122E-02
   8    9.991       8.885       7.779       6.673       5.565       4.456       3.346       2.235       1.123      1.1122E-02
   9    9.991       8.885       7.779       6.673       5.565       4.456       3.346       2.235       1.123      1.1122E-02
  10    9.991       8.885       7.779       6.673       5.565       4.456       3.346       2.235       1.123      1.1122E-02

 HEAD WILL BE SAVED ON UNIT   51 AT END OF TIME STEP   57, STRESS PERIOD    2

 DRAWDOWN WILL BE SAVED ON UNIT   52 AT END OF TIME STEP   57, STRESS PERIOD    2
1
  VOLUMETRIC BUDGET FOR ENTIRE MODEL AT END OF TIME STEP   57, STRESS PERIOD   2
  ------------------------------------------------------------------------------

     CUMULATIVE VOLUMES      L**3       RATES FOR THIS TIME STEP      L**3/T
     ------------------                 ------------------------

           IN:                                      IN:
           ---                                      ---
             STORAGE =       24967.5195               STORAGE =           3.3471
       CONSTANT HEAD =           0.0000         CONSTANT HEAD =           0.0000
               WELLS =           0.0000                 WELLS =           0.0000
     HEAD DEP BOUNDS =       24188.1641       HEAD DEP BOUNDS =         552.7573

            TOTAL IN =       49155.6836              TOTAL IN =         556.1044

          OUT:                                     OUT:
          ----                                     ----
             STORAGE =           0.0000               STORAGE =           0.0000
       CONSTANT HEAD =           0.0000         CONSTANT HEAD =           0.0000
               WELLS =           0.0000                 WELLS =           0.0000
     HEAD DEP BOUNDS =       49155.6562       HEAD DEP BOUNDS =         556.0999

           TOTAL OUT =       49155.6562             TOTAL OUT =         556.0999

            IN - OUT =       2.7344E-02              IN - OUT =       4.4556E-03

 PERCENT DISCREPANCY =           0.00     PERCENT DISCREPANCY =           0.00






         TIME SUMMARY AT END OF TIME STEP   57 IN STRESS PERIOD    2
                    SECONDS     MINUTES      HOURS       DAYS        YEARS
                    -----------------------------------------------------------
   TIME STEP LENGTH  86400.      1440.0      24.000      1.0000     2.73785E-03
 STRESS PERIOD TIME 4.92480E+06  82080.      1368.0      57.000     0.15606    
         TOTAL TIME 5.01120E+06  83520.      1392.0      58.000     0.15880    
1

 SOLVING FOR HEAD 

 OUTPUT CONTROL FOR STRESS PERIOD    2   TIME STEP   58
    SAVE HEAD FOR ALL LAYERS
    SAVE DRAWDOWN FOR ALL LAYERS
    SAVE BUDGET
    PRINT HEAD FOR ALL LAYERS
    PRINT BUDGET
 UBDSV1 SAVING "         STORAGE" ON UNIT  53 AT TIME STEP 58, STRESS PERIOD   2
 UBDSV2 SAVING "   CONSTANT HEAD" ON UNIT  53 AT TIME STEP 58, STRESS PERIOD   2
 UBDSV1 SAVING "FLOW RIGHT FACE " ON UNIT  53 AT TIME STEP 58, STRESS PERIOD   2
 UBDSV1 SAVING "FLOW FRONT FACE " ON UNIT  53 AT TIME STEP 58, STRESS PERIOD   2
1
              HEAD IN LAYER   1 AT END OF TIME STEP  58 IN STRESS PERIOD    2
  ---------------------------------------------------------------------------

            1           2           3           4           5           6           7           8           9          10
 ........................................................................................................................
   1    9.991       8.885       7.779       6.672       5.564       4.455       3.345       2.234       1.123      1.1118E-02
   2    9.991       8.885       7.779       6.672       5.564       4.455       3.345       2.234       1.123      1.1118E-02
   3    9.991       8.885       7.779       6.672       5.564       4.455       3.345       2.234       1.123      1.1118E-02
   4    9.991       8.885       7.779       6.672       5.564       4.455       3.345       2.234       1.123      1.1118E-02
   5    9.991       8.885       7.779       6.672       5.564       4.455       3.345       2.234       1.123      1.1118E-02
   6    9.991       8.885       7.779       6.672       5.564       4.455       3.345       2.234       1.123      1.1118E-02
   7    9.991       8.885       7.779       6.672       5.564       4.455       3.345       2.234       1.123      1.1118E-02
   8    9.991       8.885       7.779       6.672       5.564       4.455       3.345       2.234       1.123      1.1118E-02
   9    9.991       8.885       7.779       6.672       5.564       4.455       3.345       2.234       1.123      1.1118E-02
  10    9.991       8.885       7.779       6.672       5.564       4.455       3.345       2.234       1.123      1.1118E-02

 HEAD WILL BE SAVED ON UNIT   51 AT END OF TIME STEP   58, STRESS PERIOD    2

 DRAWDOWN WILL BE SAVED ON UNIT   52 AT END OF TIME STEP   58, STRESS PERIOD    2
1
  VOLUMETRIC BUDGET FOR ENTIRE MODEL AT END OF TIME STEP   58, STRESS PERIOD   2
  ------------------------------------------------------------------------------

     CUMULATIVE VOLUMES      L**3       RATES FOR THIS TIME STEP      L**3/T
     ------------------                 ------------------------

           IN:                                      IN:
           ---                                      ---
             STORAGE =       24970.5078               STORAGE =           2.9881
       CONSTANT HEAD =           0.0000         CONSTANT HEAD =           0.0000
               WELLS =           0.0000                 WELLS =           0.0000
     HEAD DEP BOUNDS =       24741.0996       HEAD DEP BOUNDS =         552.9352

            TOTAL IN =       49711.6094              TOTAL IN =         555.9233

          OUT:                                     OUT:
          ----                                     ----
             STORAGE =           0.0000               STORAGE =           0.0000
       CONSTANT HEAD =           0.0000         CONSTANT HEAD =           0.0000
               WELLS =           0.0000                 WELLS =           0.0000
     HEAD DEP BOUNDS =       49711.5781       HEAD DEP BOUNDS =         555.9204

           TOTAL OUT =       49711.5781             TOTAL OUT =         555.9204

            IN - OUT =       3.1250E-02              IN - OUT =       2.9297E-03

 PERCENT DISCREPANCY =           0.00     PERCENT DISCREPANCY =           0.00






         TIME SUMMARY AT END OF TIME STEP   58 IN STRESS PERIOD    2
                    SECONDS     MINUTES      HOURS       DAYS        YEARS
                    -----------------------------------------------------------
   TIME STEP LENGTH  86400.      1440.0      24.000      1.0000     2.73785E-03
 STRESS PERIOD TIME 5.01120E+06  83520.      1392.0      58.000     0.15880    
         TOTAL TIME 5.09760E+06  84960.      1416.0      59.000     0.16153    
1

 SOLVING FOR HEAD 

 OUTPUT CONTROL FOR STRESS PERIOD    2   TIME STEP   59
    SAVE HEAD FOR ALL LAYERS
    SAVE DRAWDOWN FOR ALL LAYERS
    SAVE BUDGET
    PRINT HEAD FOR ALL LAYERS
    PRINT BUDGET
 UBDSV1 SAVING "         STORAGE" ON UNIT  53 AT TIME STEP 59, STRESS PERIOD   2
 UBDSV2 SAVING "   CONSTANT HEAD" ON UNIT  53 AT TIME STEP 59, STRESS PERIOD   2
 UBDSV1 SAVING "FLOW RIGHT FACE " ON UNIT  53 AT TIME STEP 59, STRESS PERIOD   2
 UBDSV1 SAVING "FLOW FRONT FACE " ON UNIT  53 AT TIME STEP 59, STRESS PERIOD   2
1
              HEAD IN LAYER   1 AT END OF TIME STEP  59 IN STRESS PERIOD    2
  ---------------------------------------------------------------------------

            1           2           3           4           5           6           7           8           9          10
 ........................................................................................................................
   1    9.991       8.885       7.778       6.671       5.563       4.454       3.344       2.234       1.123      1.1115E-02
   2    9.991       8.885       7.778       6.671       5.563       4.454       3.344       2.234       1.123      1.1115E-02
   3    9.991       8.885       7.778       6.671       5.563       4.454       3.344       2.234       1.123      1.1115E-02
   4    9.991       8.885       7.778       6.671       5.563       4.454       3.344       2.234       1.123      1.1115E-02
   5    9.991       8.885       7.778       6.671       5.563       4.454       3.344       2.234       1.123      1.1115E-02
   6    9.991       8.885       7.778       6.671       5.563       4.454       3.344       2.234       1.123      1.1115E-02
   7    9.991       8.885       7.778       6.671       5.563       4.454       3.344       2.234       1.123      1.1115E-02
   8    9.991       8.885       7.778       6.671       5.563       4.454       3.344       2.234       1.123      1.1115E-02
   9    9.991       8.885       7.778       6.671       5.563       4.454       3.344       2.234       1.123      1.1115E-02
  10    9.991       8.885       7.778       6.671       5.563       4.454       3.344       2.234       1.123      1.1115E-02

 HEAD WILL BE SAVED ON UNIT   51 AT END OF TIME STEP   59, STRESS PERIOD    2

 DRAWDOWN WILL BE SAVED ON UNIT   52 AT END OF TIME STEP   59, STRESS PERIOD    2
1
  VOLUMETRIC BUDGET FOR ENTIRE MODEL AT END OF TIME STEP   59, STRESS PERIOD   2
  ------------------------------------------------------------------------------

     CUMULATIVE VOLUMES      L**3       RATES FOR THIS TIME STEP      L**3/T
     ------------------                 ------------------------

           IN:                                      IN:
           ---                                      ---
             STORAGE =       24973.1758               STORAGE =           2.6682
       CONSTANT HEAD =           0.0000         CONSTANT HEAD =           0.0000
               WELLS =           0.0000                 WELLS =           0.0000
     HEAD DEP BOUNDS =       25294.1934       HEAD DEP BOUNDS =         553.0940

            TOTAL IN =       50267.3672              TOTAL IN =         555.7622

          OUT:                                     OUT:
          ----                                     ----
             STORAGE =           0.0000               STORAGE =           0.0000
       CONSTANT HEAD =           0.0000         CONSTANT HEAD =           0.0000
               WELLS =           0.0000                 WELLS =           0.0000
     HEAD DEP BOUNDS =       50267.3398       HEAD DEP BOUNDS =         555.7601

           TOTAL OUT =       50267.3398             TOTAL OUT =         555.7601

            IN - OUT =       2.7344E-02              IN - OUT =       2.0752E-03

 PERCENT DISCREPANCY =           0.00     PERCENT DISCREPANCY =           0.00






         TIME SUMMARY AT END OF TIME STEP   59 IN STRESS PERIOD    2
                    SECONDS     MINUTES      HOURS       DAYS        YEARS
                    -----------------------------------------------------------
   TIME STEP LENGTH  86400.      1440.0      24.000      1.0000     2.73785E-03
 STRESS PERIOD TIME 5.09760E+06  84960.      1416.0      59.000     0.16153    
         TOTAL TIME 5.18400E+06  86400.      1440.0      60.000     0.16427    
1

 SOLVING FOR HEAD 

 OUTPUT CONTROL FOR STRESS PERIOD    2   TIME STEP   60
    SAVE HEAD FOR ALL LAYERS
    SAVE DRAWDOWN FOR ALL LAYERS
    SAVE BUDGET
    PRINT HEAD FOR ALL LAYERS
    PRINT BUDGET
 UBDSV1 SAVING "         STORAGE" ON UNIT  53 AT TIME STEP 60, STRESS PERIOD   2
 UBDSV2 SAVING "   CONSTANT HEAD" ON UNIT  53 AT TIME STEP 60, STRESS PERIOD   2
 UBDSV1 SAVING "FLOW RIGHT FACE " ON UNIT  53 AT TIME STEP 60, STRESS PERIOD   2
 UBDSV1 SAVING "FLOW FRONT FACE " ON UNIT  53 AT TIME STEP 60, STRESS PERIOD   2
1
              HEAD IN LAYER   1 AT END OF TIME STEP  60 IN STRESS PERIOD    2
  ---------------------------------------------------------------------------

            1           2           3           4           5           6           7           8           9          10
 ........................................................................................................................
   1    9.991       8.884       7.778       6.670       5.562       4.453       3.344       2.233       1.122      1.1112E-02
   2    9.991       8.884       7.778       6.670       5.562       4.453       3.344       2.233       1.122      1.1112E-02
   3    9.991       8.884       7.778       6.670       5.562       4.453       3.344       2.233       1.122      1.1112E-02
   4    9.991       8.884       7.778       6.670       5.562       4.453       3.344       2.233       1.122      1.1112E-02
   5    9.991       8.884       7.778       6.670       5.562       4.453       3.344       2.233       1.122      1.1112E-02
   6    9.991       8.884       7.778       6.670       5.562       4.453       3.344       2.233       1.122      1.1112E-02
   7    9.991       8.884       7.778       6.670       5.562       4.453       3.344       2.233       1.122      1.1112E-02
   8    9.991       8.884       7.778       6.670       5.562       4.453       3.344       2.233       1.122      1.1112E-02
   9    9.991       8.884       7.778       6.670       5.562       4.453       3.344       2.233       1.122      1.1112E-02
  10    9.991       8.884       7.778       6.670       5.562       4.453       3.344       2.233       1.122      1.1112E-02

 HEAD WILL BE SAVED ON UNIT   51 AT END OF TIME STEP   60, STRESS PERIOD    2

 DRAWDOWN WILL BE SAVED ON UNIT   52 AT END OF TIME STEP   60, STRESS PERIOD    2
1
  VOLUMETRIC BUDGET FOR ENTIRE MODEL AT END OF TIME STEP   60, STRESS PERIOD   2
  ------------------------------------------------------------------------------

     CUMULATIVE VOLUMES      L**3       RATES FOR THIS TIME STEP      L**3/T
     ------------------                 ------------------------

           IN:                                      IN:
           ---                                      ---
             STORAGE =       24975.5566               STORAGE =           2.3815
       CONSTANT HEAD =           0.0000         CONSTANT HEAD =           0.0000
               WELLS =           0.0000                 WELLS =           0.0000
     HEAD DEP BOUNDS =       25847.4297       HEAD DEP BOUNDS =         553.2357

            TOTAL IN =       50822.9844              TOTAL IN =         555.6172

          OUT:                                     OUT:
          ----                                     ----
             STORAGE =           0.0000               STORAGE =           0.0000
       CONSTANT HEAD =           0.0000         CONSTANT HEAD =           0.0000
               WELLS =           0.0000                 WELLS =           0.0000
     HEAD DEP BOUNDS =       50822.9570       HEAD DEP BOUNDS =         555.6171

           TOTAL OUT =       50822.9570             TOTAL OUT =         555.6171

            IN - OUT =       2.7344E-02              IN - OUT =       1.2207E-04

 PERCENT DISCREPANCY =           0.00     PERCENT DISCREPANCY =           0.00






         TIME SUMMARY AT END OF TIME STEP   60 IN STRESS PERIOD    2
                    SECONDS     MINUTES      HOURS       DAYS        YEARS
                    -----------------------------------------------------------
   TIME STEP LENGTH  86400.      1440.0      24.000      1.0000     2.73785E-03
 STRESS PERIOD TIME 5.18400E+06  86400.      1440.0      60.000     0.16427    
         TOTAL TIME 5.27040E+06  87840.      1464.0      61.000     0.16701    
1

 SOLVING FOR HEAD 

 OUTPUT CONTROL FOR STRESS PERIOD    2   TIME STEP   61
    SAVE HEAD FOR ALL LAYERS
    SAVE DRAWDOWN FOR ALL LAYERS
    SAVE BUDGET
    PRINT HEAD FOR ALL LAYERS
    PRINT BUDGET
 UBDSV1 SAVING "         STORAGE" ON UNIT  53 AT TIME STEP 61, STRESS PERIOD   2
 UBDSV2 SAVING "   CONSTANT HEAD" ON UNIT  53 AT TIME STEP 61, STRESS PERIOD   2
 UBDSV1 SAVING "FLOW RIGHT FACE " ON UNIT  53 AT TIME STEP 61, STRESS PERIOD   2
 UBDSV1 SAVING "FLOW FRONT FACE " ON UNIT  53 AT TIME STEP 61, STRESS PERIOD   2
1
              HEAD IN LAYER   1 AT END OF TIME STEP  61 IN STRESS PERIOD    2
  ---------------------------------------------------------------------------

            1           2           3           4           5           6           7           8           9          10
 ........................................................................................................................
   1    9.991       8.884       7.777       6.670       5.561       4.453       3.343       2.233       1.122      1.1110E-02
   2    9.991       8.884       7.777       6.670       5.561       4.453       3.343       2.233       1.122      1.1110E-02
   3    9.991       8.884       7.777       6.670       5.561       4.453       3.343       2.233       1.122      1.1110E-02
   4    9.991       8.884       7.777       6.670       5.561       4.453       3.343       2.233       1.122      1.1110E-02
   5    9.991       8.884       7.777       6.670       5.561       4.453       3.343       2.233       1.122      1.1110E-02
   6    9.991       8.884       7.777       6.670       5.561       4.453       3.343       2.233       1.122      1.1110E-02
   7    9.991       8.884       7.777       6.670       5.561       4.453       3.343       2.233       1.122      1.1110E-02
   8    9.991       8.884       7.777       6.670       5.561       4.453       3.343       2.233       1.122      1.1110E-02
   9    9.991       8.884       7.777       6.670       5.561       4.453       3.343       2.233       1.122      1.1110E-02
  10    9.991       8.884       7.777       6.670       5.561       4.453       3.343       2.233       1.122      1.1110E-02

 HEAD WILL BE SAVED ON UNIT   51 AT END OF TIME STEP   61, STRESS PERIOD    2

 DRAWDOWN WILL BE SAVED ON UNIT   52 AT END OF TIME STEP   61, STRESS PERIOD    2
1
  VOLUMETRIC BUDGET FOR ENTIRE MODEL AT END OF TIME STEP   61, STRESS PERIOD   2
  ------------------------------------------------------------------------------

     CUMULATIVE VOLUMES      L**3       RATES FOR THIS TIME STEP      L**3/T
     ------------------                 ------------------------

           IN:                                      IN:
           ---                                      ---
             STORAGE =       24977.6836               STORAGE =           2.1268
       CONSTANT HEAD =           0.0000         CONSTANT HEAD =           0.0000
               WELLS =           0.0000                 WELLS =           0.0000
     HEAD DEP BOUNDS =       26400.7930       HEAD DEP BOUNDS =         553.3623

            TOTAL IN =       51378.4766              TOTAL IN =         555.4891

          OUT:                                     OUT:
          ----                                     ----
             STORAGE =           0.0000               STORAGE =           0.0000
       CONSTANT HEAD =           0.0000         CONSTANT HEAD =           0.0000
               WELLS =           0.0000                 WELLS =           0.0000
     HEAD DEP BOUNDS =       51378.4453       HEAD DEP BOUNDS =         555.4893

           TOTAL OUT =       51378.4453             TOTAL OUT =         555.4893

            IN - OUT =       3.1250E-02              IN - OUT =      -2.4414E-04

 PERCENT DISCREPANCY =           0.00     PERCENT DISCREPANCY =          -0.00






         TIME SUMMARY AT END OF TIME STEP   61 IN STRESS PERIOD    2
                    SECONDS     MINUTES      HOURS       DAYS        YEARS
                    -----------------------------------------------------------
   TIME STEP LENGTH  86400.      1440.0      24.000      1.0000     2.73785E-03
 STRESS PERIOD TIME 5.27040E+06  87840.      1464.0      61.000     0.16701    
         TOTAL TIME 5.35680E+06  89280.      1488.0      62.000     0.16975    
1

 SOLVING FOR HEAD 

 OUTPUT CONTROL FOR STRESS PERIOD    2   TIME STEP   62
    SAVE HEAD FOR ALL LAYERS
    SAVE DRAWDOWN FOR ALL LAYERS
    SAVE BUDGET
    PRINT HEAD FOR ALL LAYERS
    PRINT BUDGET
 UBDSV1 SAVING "         STORAGE" ON UNIT  53 AT TIME STEP 62, STRESS PERIOD   2
 UBDSV2 SAVING "   CONSTANT HEAD" ON UNIT  53 AT TIME STEP 62, STRESS PERIOD   2
 UBDSV1 SAVING "FLOW RIGHT FACE " ON UNIT  53 AT TIME STEP 62, STRESS PERIOD   2
 UBDSV1 SAVING "FLOW FRONT FACE " ON UNIT  53 AT TIME STEP 62, STRESS PERIOD   2
1
              HEAD IN LAYER   1 AT END OF TIME STEP  62 IN STRESS PERIOD    2
  ---------------------------------------------------------------------------

            1           2           3           4           5           6           7           8           9          10
 ........................................................................................................................
   1    9.991       8.884       7.777       6.669       5.561       4.452       3.342       2.232       1.122      1.1108E-02
   2    9.991       8.884       7.777       6.669       5.561       4.452       3.342       2.232       1.122      1.1108E-02
   3    9.991       8.884       7.777       6.669       5.561       4.452       3.342       2.232       1.122      1.1108E-02
   4    9.991       8.884       7.777       6.669       5.561       4.452       3.342       2.232       1.122      1.1108E-02
   5    9.991       8.884       7.777       6.669       5.561       4.452       3.342       2.232       1.122      1.1108E-02
   6    9.991       8.884       7.777       6.669       5.561       4.452       3.342       2.232       1.122      1.1108E-02
   7    9.991       8.884       7.777       6.669       5.561       4.452       3.342       2.232       1.122      1.1108E-02
   8    9.991       8.884       7.777       6.669       5.561       4.452       3.342       2.232       1.122      1.1108E-02
   9    9.991       8.884       7.777       6.669       5.561       4.452       3.342       2.232       1.122      1.1108E-02
  10    9.991       8.884       7.777       6.669       5.561       4.452       3.342       2.232       1.122      1.1108E-02

 HEAD WILL BE SAVED ON UNIT   51 AT END OF TIME STEP   62, STRESS PERIOD    2

 DRAWDOWN WILL BE SAVED ON UNIT   52 AT END OF TIME STEP   62, STRESS PERIOD    2
1
  VOLUMETRIC BUDGET FOR ENTIRE MODEL AT END OF TIME STEP   62, STRESS PERIOD   2
  ------------------------------------------------------------------------------

     CUMULATIVE VOLUMES      L**3       RATES FOR THIS TIME STEP      L**3/T
     ------------------                 ------------------------

           IN:                                      IN:
           ---                                      ---
             STORAGE =       24979.5820               STORAGE =           1.8983
       CONSTANT HEAD =           0.0000         CONSTANT HEAD =           0.0000
               WELLS =           0.0000                 WELLS =           0.0000
     HEAD DEP BOUNDS =       26954.2676       HEAD DEP BOUNDS =         553.4753

            TOTAL IN =       51933.8516              TOTAL IN =         555.3736

          OUT:                                     OUT:
          ----                                     ----
             STORAGE =           0.0000               STORAGE =           0.0000
       CONSTANT HEAD =           0.0000         CONSTANT HEAD =           0.0000
               WELLS =           0.0000                 WELLS =           0.0000
     HEAD DEP BOUNDS =       51933.8203       HEAD DEP BOUNDS =         555.3753

           TOTAL OUT =       51933.8203             TOTAL OUT =         555.3753

            IN - OUT =       3.1250E-02              IN - OUT =      -1.7090E-03

 PERCENT DISCREPANCY =           0.00     PERCENT DISCREPANCY =          -0.00






         TIME SUMMARY AT END OF TIME STEP   62 IN STRESS PERIOD    2
                    SECONDS     MINUTES      HOURS       DAYS        YEARS
                    -----------------------------------------------------------
   TIME STEP LENGTH  86400.      1440.0      24.000      1.0000     2.73785E-03
 STRESS PERIOD TIME 5.35680E+06  89280.      1488.0      62.000     0.16975    
         TOTAL TIME 5.44320E+06  90720.      1512.0      63.000     0.17248    
1

 SOLVING FOR HEAD 

 OUTPUT CONTROL FOR STRESS PERIOD    2   TIME STEP   63
    SAVE HEAD FOR ALL LAYERS
    SAVE DRAWDOWN FOR ALL LAYERS
    SAVE BUDGET
    PRINT HEAD FOR ALL LAYERS
    PRINT BUDGET
 UBDSV1 SAVING "         STORAGE" ON UNIT  53 AT TIME STEP 63, STRESS PERIOD   2
 UBDSV2 SAVING "   CONSTANT HEAD" ON UNIT  53 AT TIME STEP 63, STRESS PERIOD   2
 UBDSV1 SAVING "FLOW RIGHT FACE " ON UNIT  53 AT TIME STEP 63, STRESS PERIOD   2
 UBDSV1 SAVING "FLOW FRONT FACE " ON UNIT  53 AT TIME STEP 63, STRESS PERIOD   2
1
              HEAD IN LAYER   1 AT END OF TIME STEP  63 IN STRESS PERIOD    2
  ---------------------------------------------------------------------------

            1           2           3           4           5           6           7           8           9          10
 ........................................................................................................................
   1    9.991       8.884       7.776       6.669       5.560       4.451       3.342       2.232       1.122      1.1105E-02
   2    9.991       8.884       7.776       6.669       5.560       4.451       3.342       2.232       1.122      1.1105E-02
   3    9.991       8.884       7.776       6.669       5.560       4.451       3.342       2.232       1.122      1.1105E-02
   4    9.991       8.884       7.776       6.669       5.560       4.451       3.342       2.232       1.122      1.1105E-02
   5    9.991       8.884       7.776       6.669       5.560       4.451       3.342       2.232       1.122      1.1105E-02
   6    9.991       8.884       7.776       6.669       5.560       4.451       3.342       2.232       1.122      1.1105E-02
   7    9.991       8.884       7.776       6.669       5.560       4.451       3.342       2.232       1.122      1.1105E-02
   8    9.991       8.884       7.776       6.669       5.560       4.451       3.342       2.232       1.122      1.1105E-02
   9    9.991       8.884       7.776       6.669       5.560       4.451       3.342       2.232       1.122      1.1105E-02
  10    9.991       8.884       7.776       6.669       5.560       4.451       3.342       2.232       1.122      1.1105E-02

 HEAD WILL BE SAVED ON UNIT   51 AT END OF TIME STEP   63, STRESS PERIOD    2

 DRAWDOWN WILL BE SAVED ON UNIT   52 AT END OF TIME STEP   63, STRESS PERIOD    2
1
  VOLUMETRIC BUDGET FOR ENTIRE MODEL AT END OF TIME STEP   63, STRESS PERIOD   2
  ------------------------------------------------------------------------------

     CUMULATIVE VOLUMES      L**3       RATES FOR THIS TIME STEP      L**3/T
     ------------------                 ------------------------

           IN:                                      IN:
           ---                                      ---
             STORAGE =       24981.2754               STORAGE =           1.6943
       CONSTANT HEAD =           0.0000         CONSTANT HEAD =           0.0000
               WELLS =           0.0000                 WELLS =           0.0000
     HEAD DEP BOUNDS =       27507.8438       HEAD DEP BOUNDS =         553.5762

            TOTAL IN =       52489.1172              TOTAL IN =         555.2705

          OUT:                                     OUT:
          ----                                     ----
             STORAGE =           0.0000               STORAGE =           0.0000
       CONSTANT HEAD =           0.0000         CONSTANT HEAD =           0.0000
               WELLS =           0.0000                 WELLS =           0.0000
     HEAD DEP BOUNDS =       52489.0938       HEAD DEP BOUNDS =         555.2735

           TOTAL OUT =       52489.0938             TOTAL OUT =         555.2735

            IN - OUT =       2.3438E-02              IN - OUT =      -2.9907E-03

 PERCENT DISCREPANCY =           0.00     PERCENT DISCREPANCY =          -0.00






         TIME SUMMARY AT END OF TIME STEP   63 IN STRESS PERIOD    2
                    SECONDS     MINUTES      HOURS       DAYS        YEARS
                    -----------------------------------------------------------
   TIME STEP LENGTH  86400.      1440.0      24.000      1.0000     2.73785E-03
 STRESS PERIOD TIME 5.44320E+06  90720.      1512.0      63.000     0.17248    
         TOTAL TIME 5.52960E+06  92160.      1536.0      64.000     0.17522    
1

 SOLVING FOR HEAD 

 OUTPUT CONTROL FOR STRESS PERIOD    2   TIME STEP   64
    SAVE HEAD FOR ALL LAYERS
    SAVE DRAWDOWN FOR ALL LAYERS
    SAVE BUDGET
    PRINT HEAD FOR ALL LAYERS
    PRINT BUDGET
 UBDSV1 SAVING "         STORAGE" ON UNIT  53 AT TIME STEP 64, STRESS PERIOD   2
 UBDSV2 SAVING "   CONSTANT HEAD" ON UNIT  53 AT TIME STEP 64, STRESS PERIOD   2
 UBDSV1 SAVING "FLOW RIGHT FACE " ON UNIT  53 AT TIME STEP 64, STRESS PERIOD   2
 UBDSV1 SAVING "FLOW FRONT FACE " ON UNIT  53 AT TIME STEP 64, STRESS PERIOD   2
1
              HEAD IN LAYER   1 AT END OF TIME STEP  64 IN STRESS PERIOD    2
  ---------------------------------------------------------------------------

            1           2           3           4           5           6           7           8           9          10
 ........................................................................................................................
   1    9.991       8.883       7.776       6.668       5.560       4.451       3.341       2.232       1.121      1.1104E-02
   2    9.991       8.883       7.776       6.668       5.560       4.451       3.341       2.232       1.121      1.1104E-02
   3    9.991       8.883       7.776       6.668       5.560       4.451       3.341       2.232       1.121      1.1104E-02
   4    9.991       8.883       7.776       6.668       5.560       4.451       3.341       2.232       1.121      1.1104E-02
   5    9.991       8.883       7.776       6.668       5.560       4.451       3.341       2.232       1.121      1.1104E-02
   6    9.991       8.883       7.776       6.668       5.560       4.451       3.341       2.232       1.121      1.1104E-02
   7    9.991       8.883       7.776       6.668       5.560       4.451       3.341       2.232       1.121      1.1104E-02
   8    9.991       8.883       7.776       6.668       5.560       4.451       3.341       2.232       1.121      1.1104E-02
   9    9.991       8.883       7.776       6.668       5.560       4.451       3.341       2.232       1.121      1.1104E-02
  10    9.991       8.883       7.776       6.668       5.560       4.451       3.341       2.232       1.121      1.1104E-02

 HEAD WILL BE SAVED ON UNIT   51 AT END OF TIME STEP   64, STRESS PERIOD    2

 DRAWDOWN WILL BE SAVED ON UNIT   52 AT END OF TIME STEP   64, STRESS PERIOD    2
1
  VOLUMETRIC BUDGET FOR ENTIRE MODEL AT END OF TIME STEP   64, STRESS PERIOD   2
  ------------------------------------------------------------------------------

     CUMULATIVE VOLUMES      L**3       RATES FOR THIS TIME STEP      L**3/T
     ------------------                 ------------------------

           IN:                                      IN:
           ---                                      ---
             STORAGE =       24982.7891               STORAGE =           1.5134
       CONSTANT HEAD =           0.0000         CONSTANT HEAD =           0.0000
               WELLS =           0.0000                 WELLS =           0.0000
     HEAD DEP BOUNDS =       28061.5098       HEAD DEP BOUNDS =         553.6663

            TOTAL IN =       53044.2969              TOTAL IN =         555.1797

          OUT:                                     OUT:
          ----                                     ----
             STORAGE =           0.0000               STORAGE =           0.0000
       CONSTANT HEAD =           0.0000         CONSTANT HEAD =           0.0000
               WELLS =           0.0000                 WELLS =           0.0000
     HEAD DEP BOUNDS =       53044.2773       HEAD DEP BOUNDS =         555.1826

           TOTAL OUT =       53044.2773             TOTAL OUT =         555.1826

            IN - OUT =       1.9531E-02              IN - OUT =      -2.9297E-03

 PERCENT DISCREPANCY =           0.00     PERCENT DISCREPANCY =          -0.00






         TIME SUMMARY AT END OF TIME STEP   64 IN STRESS PERIOD    2
                    SECONDS     MINUTES      HOURS       DAYS        YEARS
                    -----------------------------------------------------------
   TIME STEP LENGTH  86400.      1440.0      24.000      1.0000     2.73785E-03
 STRESS PERIOD TIME 5.52960E+06  92160.      1536.0      64.000     0.17522    
         TOTAL TIME 5.61600E+06  93600.      1560.0      65.000     0.17796    
1

 SOLVING FOR HEAD 

 OUTPUT CONTROL FOR STRESS PERIOD    2   TIME STEP   65
    SAVE HEAD FOR ALL LAYERS
    SAVE DRAWDOWN FOR ALL LAYERS
    SAVE BUDGET
    PRINT HEAD FOR ALL LAYERS
    PRINT BUDGET
 UBDSV1 SAVING "         STORAGE" ON UNIT  53 AT TIME STEP 65, STRESS PERIOD   2
 UBDSV2 SAVING "   CONSTANT HEAD" ON UNIT  53 AT TIME STEP 65, STRESS PERIOD   2
 UBDSV1 SAVING "FLOW RIGHT FACE " ON UNIT  53 AT TIME STEP 65, STRESS PERIOD   2
 UBDSV1 SAVING "FLOW FRONT FACE " ON UNIT  53 AT TIME STEP 65, STRESS PERIOD   2
1
              HEAD IN LAYER   1 AT END OF TIME STEP  65 IN STRESS PERIOD    2
  ---------------------------------------------------------------------------

            1           2           3           4           5           6           7           8           9          10
 ........................................................................................................................
   1    9.991       8.883       7.776       6.668       5.559       4.450       3.341       2.231       1.121      1.1102E-02
   2    9.991       8.883       7.776       6.668       5.559       4.450       3.341       2.231       1.121      1.1102E-02
   3    9.991       8.883       7.776       6.668       5.559       4.450       3.341       2.231       1.121      1.1102E-02
   4    9.991       8.883       7.776       6.668       5.559       4.450       3.341       2.231       1.121      1.1102E-02
   5    9.991       8.883       7.776       6.668       5.559       4.450       3.341       2.231       1.121      1.1102E-02
   6    9.991       8.883       7.776       6.668       5.559       4.450       3.341       2.231       1.121      1.1102E-02
   7    9.991       8.883       7.776       6.668       5.559       4.450       3.341       2.231       1.121      1.1102E-02
   8    9.991       8.883       7.776       6.668       5.559       4.450       3.341       2.231       1.121      1.1102E-02
   9    9.991       8.883       7.776       6.668       5.559       4.450       3.341       2.231       1.121      1.1102E-02
  10    9.991       8.883       7.776       6.668       5.559       4.450       3.341       2.231       1.121      1.1102E-02

 HEAD WILL BE SAVED ON UNIT   51 AT END OF TIME STEP   65, STRESS PERIOD    2

 DRAWDOWN WILL BE SAVED ON UNIT   52 AT END OF TIME STEP   65, STRESS PERIOD    2
1
  VOLUMETRIC BUDGET FOR ENTIRE MODEL AT END OF TIME STEP   65, STRESS PERIOD   2
  ------------------------------------------------------------------------------

     CUMULATIVE VOLUMES      L**3       RATES FOR THIS TIME STEP      L**3/T
     ------------------                 ------------------------

           IN:                                      IN:
           ---                                      ---
             STORAGE =       24984.1387               STORAGE =           1.3498
       CONSTANT HEAD =           0.0000         CONSTANT HEAD =           0.0000
               WELLS =           0.0000                 WELLS =           0.0000
     HEAD DEP BOUNDS =       28615.2559       HEAD DEP BOUNDS =         553.7466

            TOTAL IN =       53599.3945              TOTAL IN =         555.0965

          OUT:                                     OUT:
          ----                                     ----
             STORAGE =           0.0000               STORAGE =           0.0000
       CONSTANT HEAD =           0.0000         CONSTANT HEAD =           0.0000
               WELLS =           0.0000                 WELLS =           0.0000
     HEAD DEP BOUNDS =       53599.3789       HEAD DEP BOUNDS =         555.1015

           TOTAL OUT =       53599.3789             TOTAL OUT =         555.1015

            IN - OUT =       1.5625E-02              IN - OUT =      -5.0049E-03

 PERCENT DISCREPANCY =           0.00     PERCENT DISCREPANCY =          -0.00






         TIME SUMMARY AT END OF TIME STEP   65 IN STRESS PERIOD    2
                    SECONDS     MINUTES      HOURS       DAYS        YEARS
                    -----------------------------------------------------------
   TIME STEP LENGTH  86400.      1440.0      24.000      1.0000     2.73785E-03
 STRESS PERIOD TIME 5.61600E+06  93600.      1560.0      65.000     0.17796    
         TOTAL TIME 5.70240E+06  95040.      1584.0      66.000     0.18070    
1

 SOLVING FOR HEAD 

 OUTPUT CONTROL FOR STRESS PERIOD    2   TIME STEP   66
    SAVE HEAD FOR ALL LAYERS
    SAVE DRAWDOWN FOR ALL LAYERS
    SAVE BUDGET
    PRINT HEAD FOR ALL LAYERS
    PRINT BUDGET
 UBDSV1 SAVING "         STORAGE" ON UNIT  53 AT TIME STEP 66, STRESS PERIOD   2
 UBDSV2 SAVING "   CONSTANT HEAD" ON UNIT  53 AT TIME STEP 66, STRESS PERIOD   2
 UBDSV1 SAVING "FLOW RIGHT FACE " ON UNIT  53 AT TIME STEP 66, STRESS PERIOD   2
 UBDSV1 SAVING "FLOW FRONT FACE " ON UNIT  53 AT TIME STEP 66, STRESS PERIOD   2
1
              HEAD IN LAYER   1 AT END OF TIME STEP  66 IN STRESS PERIOD    2
  ---------------------------------------------------------------------------

            1           2           3           4           5           6           7           8           9          10
 ........................................................................................................................
   1    9.991       8.883       7.775       6.667       5.559       4.450       3.341       2.231       1.121      1.1101E-02
   2    9.991       8.883       7.775       6.667       5.559       4.450       3.341       2.231       1.121      1.1101E-02
   3    9.991       8.883       7.775       6.667       5.559       4.450       3.341       2.231       1.121      1.1101E-02
   4    9.991       8.883       7.775       6.667       5.559       4.450       3.341       2.231       1.121      1.1101E-02
   5    9.991       8.883       7.775       6.667       5.559       4.450       3.341       2.231       1.121      1.1101E-02
   6    9.991       8.883       7.775       6.667       5.559       4.450       3.341       2.231       1.121      1.1101E-02
   7    9.991       8.883       7.775       6.667       5.559       4.450       3.341       2.231       1.121      1.1101E-02
   8    9.991       8.883       7.775       6.667       5.559       4.450       3.341       2.231       1.121      1.1101E-02
   9    9.991       8.883       7.775       6.667       5.559       4.450       3.341       2.231       1.121      1.1101E-02
  10    9.991       8.883       7.775       6.667       5.559       4.450       3.341       2.231       1.121      1.1101E-02

 HEAD WILL BE SAVED ON UNIT   51 AT END OF TIME STEP   66, STRESS PERIOD    2

 DRAWDOWN WILL BE SAVED ON UNIT   52 AT END OF TIME STEP   66, STRESS PERIOD    2
1
  VOLUMETRIC BUDGET FOR ENTIRE MODEL AT END OF TIME STEP   66, STRESS PERIOD   2
  ------------------------------------------------------------------------------

     CUMULATIVE VOLUMES      L**3       RATES FOR THIS TIME STEP      L**3/T
     ------------------                 ------------------------

           IN:                                      IN:
           ---                                      ---
             STORAGE =       24985.3438               STORAGE =           1.2060
       CONSTANT HEAD =           0.0000         CONSTANT HEAD =           0.0000
               WELLS =           0.0000                 WELLS =           0.0000
     HEAD DEP BOUNDS =       29169.0742       HEAD DEP BOUNDS =         553.8183

            TOTAL IN =       54154.4180              TOTAL IN =         555.0243

          OUT:                                     OUT:
          ----                                     ----
             STORAGE =           0.0000               STORAGE =           0.0000
       CONSTANT HEAD =           0.0000         CONSTANT HEAD =           0.0000
               WELLS =           0.0000                 WELLS =           0.0000
     HEAD DEP BOUNDS =       54154.4062       HEAD DEP BOUNDS =         555.0291

           TOTAL OUT =       54154.4062             TOTAL OUT =         555.0291

            IN - OUT =       1.1719E-02              IN - OUT =      -4.7607E-03

 PERCENT DISCREPANCY =           0.00     PERCENT DISCREPANCY =          -0.00






         TIME SUMMARY AT END OF TIME STEP   66 IN STRESS PERIOD    2
                    SECONDS     MINUTES      HOURS       DAYS        YEARS
                    -----------------------------------------------------------
   TIME STEP LENGTH  86400.      1440.0      24.000      1.0000     2.73785E-03
 STRESS PERIOD TIME 5.70240E+06  95040.      1584.0      66.000     0.18070    
         TOTAL TIME 5.78880E+06  96480.      1608.0      67.000     0.18344    
1

 SOLVING FOR HEAD 

 OUTPUT CONTROL FOR STRESS PERIOD    2   TIME STEP   67
    SAVE HEAD FOR ALL LAYERS
    SAVE DRAWDOWN FOR ALL LAYERS
    SAVE BUDGET
    PRINT HEAD FOR ALL LAYERS
    PRINT BUDGET
 UBDSV1 SAVING "         STORAGE" ON UNIT  53 AT TIME STEP 67, STRESS PERIOD   2
 UBDSV2 SAVING "   CONSTANT HEAD" ON UNIT  53 AT TIME STEP 67, STRESS PERIOD   2
 UBDSV1 SAVING "FLOW RIGHT FACE " ON UNIT  53 AT TIME STEP 67, STRESS PERIOD   2
 UBDSV1 SAVING "FLOW FRONT FACE " ON UNIT  53 AT TIME STEP 67, STRESS PERIOD   2
1
              HEAD IN LAYER   1 AT END OF TIME STEP  67 IN STRESS PERIOD    2
  ---------------------------------------------------------------------------

            1           2           3           4           5           6           7           8           9          10
 ........................................................................................................................
   1    9.991       8.883       7.775       6.667       5.558       4.450       3.340       2.231       1.121      1.1099E-02
   2    9.991       8.883       7.775       6.667       5.558       4.450       3.340       2.231       1.121      1.1099E-02
   3    9.991       8.883       7.775       6.667       5.558       4.450       3.340       2.231       1.121      1.1099E-02
   4    9.991       8.883       7.775       6.667       5.558       4.450       3.340       2.231       1.121      1.1099E-02
   5    9.991       8.883       7.775       6.667       5.558       4.450       3.340       2.231       1.121      1.1099E-02
   6    9.991       8.883       7.775       6.667       5.558       4.450       3.340       2.231       1.121      1.1099E-02
   7    9.991       8.883       7.775       6.667       5.558       4.450       3.340       2.231       1.121      1.1099E-02
   8    9.991       8.883       7.775       6.667       5.558       4.450       3.340       2.231       1.121      1.1099E-02
   9    9.991       8.883       7.775       6.667       5.558       4.450       3.340       2.231       1.121      1.1099E-02
  10    9.991       8.883       7.775       6.667       5.558       4.450       3.340       2.231       1.121      1.1099E-02

 HEAD WILL BE SAVED ON UNIT   51 AT END OF TIME STEP   67, STRESS PERIOD    2

 DRAWDOWN WILL BE SAVED ON UNIT   52 AT END OF TIME STEP   67, STRESS PERIOD    2
1
  VOLUMETRIC BUDGET FOR ENTIRE MODEL AT END OF TIME STEP   67, STRESS PERIOD   2
  ------------------------------------------------------------------------------

     CUMULATIVE VOLUMES      L**3       RATES FOR THIS TIME STEP      L**3/T
     ------------------                 ------------------------

           IN:                                      IN:
           ---                                      ---
             STORAGE =       24986.4199               STORAGE =           1.0767
       CONSTANT HEAD =           0.0000         CONSTANT HEAD =           0.0000
               WELLS =           0.0000                 WELLS =           0.0000
     HEAD DEP BOUNDS =       29722.9570       HEAD DEP BOUNDS =         553.8823

            TOTAL IN =       54709.3750              TOTAL IN =         554.9590

          OUT:                                     OUT:
          ----                                     ----
             STORAGE =           0.0000               STORAGE =           0.0000
       CONSTANT HEAD =           0.0000         CONSTANT HEAD =           0.0000
               WELLS =           0.0000                 WELLS =           0.0000
     HEAD DEP BOUNDS =       54709.3711       HEAD DEP BOUNDS =         554.9644

           TOTAL OUT =       54709.3711             TOTAL OUT =         554.9644

            IN - OUT =       3.9062E-03              IN - OUT =      -5.3711E-03

 PERCENT DISCREPANCY =           0.00     PERCENT DISCREPANCY =          -0.00






         TIME SUMMARY AT END OF TIME STEP   67 IN STRESS PERIOD    2
                    SECONDS     MINUTES      HOURS       DAYS        YEARS
                    -----------------------------------------------------------
   TIME STEP LENGTH  86400.      1440.0      24.000      1.0000     2.73785E-03
 STRESS PERIOD TIME 5.78880E+06  96480.      1608.0      67.000     0.18344    
         TOTAL TIME 5.87520E+06  97920.      1632.0      68.000     0.18617    
1

 SOLVING FOR HEAD 

 OUTPUT CONTROL FOR STRESS PERIOD    2   TIME STEP   68
    SAVE HEAD FOR ALL LAYERS
    SAVE DRAWDOWN FOR ALL LAYERS
    SAVE BUDGET
    PRINT HEAD FOR ALL LAYERS
    PRINT BUDGET
 UBDSV1 SAVING "         STORAGE" ON UNIT  53 AT TIME STEP 68, STRESS PERIOD   2
 UBDSV2 SAVING "   CONSTANT HEAD" ON UNIT  53 AT TIME STEP 68, STRESS PERIOD   2
 UBDSV1 SAVING "FLOW RIGHT FACE " ON UNIT  53 AT TIME STEP 68, STRESS PERIOD   2
 UBDSV1 SAVING "FLOW FRONT FACE " ON UNIT  53 AT TIME STEP 68, STRESS PERIOD   2
1
              HEAD IN LAYER   1 AT END OF TIME STEP  68 IN STRESS PERIOD    2
  ---------------------------------------------------------------------------

            1           2           3           4           5           6           7           8           9          10
 ........................................................................................................................
   1    9.991       8.883       7.775       6.667       5.558       4.449       3.340       2.231       1.121      1.1098E-02
   2    9.991       8.883       7.775       6.667       5.558       4.449       3.340       2.231       1.121      1.1098E-02
   3    9.991       8.883       7.775       6.667       5.558       4.449       3.340       2.231       1.121      1.1098E-02
   4    9.991       8.883       7.775       6.667       5.558       4.449       3.340       2.231       1.121      1.1098E-02
   5    9.991       8.883       7.775       6.667       5.558       4.449       3.340       2.231       1.121      1.1098E-02
   6    9.991       8.883       7.775       6.667       5.558       4.449       3.340       2.231       1.121      1.1098E-02
   7    9.991       8.883       7.775       6.667       5.558       4.449       3.340       2.231       1.121      1.1098E-02
   8    9.991       8.883       7.775       6.667       5.558       4.449       3.340       2.231       1.121      1.1098E-02
   9    9.991       8.883       7.775       6.667       5.558       4.449       3.340       2.231       1.121      1.1098E-02
  10    9.991       8.883       7.775       6.667       5.558       4.449       3.340       2.231       1.121      1.1098E-02

 HEAD WILL BE SAVED ON UNIT   51 AT END OF TIME STEP   68, STRESS PERIOD    2

 DRAWDOWN WILL BE SAVED ON UNIT   52 AT END OF TIME STEP   68, STRESS PERIOD    2
1
  VOLUMETRIC BUDGET FOR ENTIRE MODEL AT END OF TIME STEP   68, STRESS PERIOD   2
  ------------------------------------------------------------------------------

     CUMULATIVE VOLUMES      L**3       RATES FOR THIS TIME STEP      L**3/T
     ------------------                 ------------------------

           IN:                                      IN:
           ---                                      ---
             STORAGE =       24987.3809               STORAGE =           0.9607
       CONSTANT HEAD =           0.0000         CONSTANT HEAD =           0.0000
               WELLS =           0.0000                 WELLS =           0.0000
     HEAD DEP BOUNDS =       30276.8965       HEAD DEP BOUNDS =         553.9396

            TOTAL IN =       55264.2773              TOTAL IN =         554.9003

          OUT:                                     OUT:
          ----                                     ----
             STORAGE =           0.0000               STORAGE =           0.0000
       CONSTANT HEAD =           0.0000         CONSTANT HEAD =           0.0000
               WELLS =           0.0000                 WELLS =           0.0000
     HEAD DEP BOUNDS =       55264.2773       HEAD DEP BOUNDS =         554.9067

           TOTAL OUT =       55264.2773             TOTAL OUT =         554.9067

            IN - OUT =           0.0000              IN - OUT =      -6.3477E-03

 PERCENT DISCREPANCY =           0.00     PERCENT DISCREPANCY =          -0.00






         TIME SUMMARY AT END OF TIME STEP   68 IN STRESS PERIOD    2
                    SECONDS     MINUTES      HOURS       DAYS        YEARS
                    -----------------------------------------------------------
   TIME STEP LENGTH  86400.      1440.0      24.000      1.0000     2.73785E-03
 STRESS PERIOD TIME 5.87520E+06  97920.      1632.0      68.000     0.18617    
         TOTAL TIME 5.96160E+06  99360.      1656.0      69.000     0.18891    
1

 SOLVING FOR HEAD 

 OUTPUT CONTROL FOR STRESS PERIOD    2   TIME STEP   69
    SAVE HEAD FOR ALL LAYERS
    SAVE DRAWDOWN FOR ALL LAYERS
    SAVE BUDGET
    PRINT HEAD FOR ALL LAYERS
    PRINT BUDGET
 UBDSV1 SAVING "         STORAGE" ON UNIT  53 AT TIME STEP 69, STRESS PERIOD   2
 UBDSV2 SAVING "   CONSTANT HEAD" ON UNIT  53 AT TIME STEP 69, STRESS PERIOD   2
 UBDSV1 SAVING "FLOW RIGHT FACE " ON UNIT  53 AT TIME STEP 69, STRESS PERIOD   2
 UBDSV1 SAVING "FLOW FRONT FACE " ON UNIT  53 AT TIME STEP 69, STRESS PERIOD   2
1
              HEAD IN LAYER   1 AT END OF TIME STEP  69 IN STRESS PERIOD    2
  ---------------------------------------------------------------------------

            1           2           3           4           5           6           7           8           9          10
 ........................................................................................................................
   1    9.991       8.883       7.775       6.666       5.558       4.449       3.340       2.230       1.121      1.1097E-02
   2    9.991       8.883       7.775       6.666       5.558       4.449       3.340       2.230       1.121      1.1097E-02
   3    9.991       8.883       7.775       6.666       5.558       4.449       3.340       2.230       1.121      1.1097E-02
   4    9.991       8.883       7.775       6.666       5.558       4.449       3.340       2.230       1.121      1.1097E-02
   5    9.991       8.883       7.775       6.666       5.558       4.449       3.340       2.230       1.121      1.1097E-02
   6    9.991       8.883       7.775       6.666       5.558       4.449       3.340       2.230       1.121      1.1097E-02
   7    9.991       8.883       7.775       6.666       5.558       4.449       3.340       2.230       1.121      1.1097E-02
   8    9.991       8.883       7.775       6.666       5.558       4.449       3.340       2.230       1.121      1.1097E-02
   9    9.991       8.883       7.775       6.666       5.558       4.449       3.340       2.230       1.121      1.1097E-02
  10    9.991       8.883       7.775       6.666       5.558       4.449       3.340       2.230       1.121      1.1097E-02

 HEAD WILL BE SAVED ON UNIT   51 AT END OF TIME STEP   69, STRESS PERIOD    2

 DRAWDOWN WILL BE SAVED ON UNIT   52 AT END OF TIME STEP   69, STRESS PERIOD    2
1
  VOLUMETRIC BUDGET FOR ENTIRE MODEL AT END OF TIME STEP   69, STRESS PERIOD   2
  ------------------------------------------------------------------------------

     CUMULATIVE VOLUMES      L**3       RATES FOR THIS TIME STEP      L**3/T
     ------------------                 ------------------------

           IN:                                      IN:
           ---                                      ---
             STORAGE =       24988.2383               STORAGE =           0.8572
       CONSTANT HEAD =           0.0000         CONSTANT HEAD =           0.0000
               WELLS =           0.0000                 WELLS =           0.0000
     HEAD DEP BOUNDS =       30830.8867       HEAD DEP BOUNDS =         553.9906

            TOTAL IN =       55819.1250              TOTAL IN =         554.8478

          OUT:                                     OUT:
          ----                                     ----
             STORAGE =           0.0000               STORAGE =           0.0000
       CONSTANT HEAD =           0.0000         CONSTANT HEAD =           0.0000
               WELLS =           0.0000                 WELLS =           0.0000
     HEAD DEP BOUNDS =       55819.1328       HEAD DEP BOUNDS =         554.8552

           TOTAL OUT =       55819.1328             TOTAL OUT =         554.8552

            IN - OUT =      -7.8125E-03              IN - OUT =      -7.3242E-03

 PERCENT DISCREPANCY =          -0.00     PERCENT DISCREPANCY =          -0.00






         TIME SUMMARY AT END OF TIME STEP   69 IN STRESS PERIOD    2
                    SECONDS     MINUTES      HOURS       DAYS        YEARS
                    -----------------------------------------------------------
   TIME STEP LENGTH  86400.      1440.0      24.000      1.0000     2.73785E-03
 STRESS PERIOD TIME 5.96160E+06  99360.      1656.0      69.000     0.18891    
         TOTAL TIME 6.04800E+06 1.00800E+05  1680.0      70.000     0.19165    
1

 SOLVING FOR HEAD 

 OUTPUT CONTROL FOR STRESS PERIOD    2   TIME STEP   70
    SAVE HEAD FOR ALL LAYERS
    SAVE DRAWDOWN FOR ALL LAYERS
    SAVE BUDGET
    PRINT HEAD FOR ALL LAYERS
    PRINT BUDGET
 UBDSV1 SAVING "         STORAGE" ON UNIT  53 AT TIME STEP 70, STRESS PERIOD   2
 UBDSV2 SAVING "   CONSTANT HEAD" ON UNIT  53 AT TIME STEP 70, STRESS PERIOD   2
 UBDSV1 SAVING "FLOW RIGHT FACE " ON UNIT  53 AT TIME STEP 70, STRESS PERIOD   2
 UBDSV1 SAVING "FLOW FRONT FACE " ON UNIT  53 AT TIME STEP 70, STRESS PERIOD   2
1
              HEAD IN LAYER   1 AT END OF TIME STEP  70 IN STRESS PERIOD    2
  ---------------------------------------------------------------------------

            1           2           3           4           5           6           7           8           9          10
 ........................................................................................................................
   1    9.991       8.883       7.774       6.666       5.558       4.449       3.340       2.230       1.121      1.1096E-02
   2    9.991       8.883       7.774       6.666       5.558       4.449       3.340       2.230       1.121      1.1096E-02
   3    9.991       8.883       7.774       6.666       5.558       4.449       3.340       2.230       1.121      1.1096E-02
   4    9.991       8.883       7.774       6.666       5.558       4.449       3.340       2.230       1.121      1.1096E-02
   5    9.991       8.883       7.774       6.666       5.558       4.449       3.340       2.230       1.121      1.1096E-02
   6    9.991       8.883       7.774       6.666       5.558       4.449       3.340       2.230       1.121      1.1096E-02
   7    9.991       8.883       7.774       6.666       5.558       4.449       3.340       2.230       1.121      1.1096E-02
   8    9.991       8.883       7.774       6.666       5.558       4.449       3.340       2.230       1.121      1.1096E-02
   9    9.991       8.883       7.774       6.666       5.558       4.449       3.340       2.230       1.121      1.1096E-02
  10    9.991       8.883       7.774       6.666       5.558       4.449       3.340       2.230       1.121      1.1096E-02

 HEAD WILL BE SAVED ON UNIT   51 AT END OF TIME STEP   70, STRESS PERIOD    2

 DRAWDOWN WILL BE SAVED ON UNIT   52 AT END OF TIME STEP   70, STRESS PERIOD    2
1
  VOLUMETRIC BUDGET FOR ENTIRE MODEL AT END OF TIME STEP   70, STRESS PERIOD   2
  ------------------------------------------------------------------------------

     CUMULATIVE VOLUMES      L**3       RATES FOR THIS TIME STEP      L**3/T
     ------------------                 ------------------------

           IN:                                      IN:
           ---                                      ---
             STORAGE =       24989.0039               STORAGE =           0.7653
       CONSTANT HEAD =           0.0000         CONSTANT HEAD =           0.0000
               WELLS =           0.0000                 WELLS =           0.0000
     HEAD DEP BOUNDS =       31384.9219       HEAD DEP BOUNDS =         554.0360

            TOTAL IN =       56373.9258              TOTAL IN =         554.8013

          OUT:                                     OUT:
          ----                                     ----
             STORAGE =           0.0000               STORAGE =           0.0000
       CONSTANT HEAD =           0.0000         CONSTANT HEAD =           0.0000
               WELLS =           0.0000                 WELLS =           0.0000
     HEAD DEP BOUNDS =       56373.9414       HEAD DEP BOUNDS =         554.8091

           TOTAL OUT =       56373.9414             TOTAL OUT =         554.8091

            IN - OUT =      -1.5625E-02              IN - OUT =      -7.8125E-03

 PERCENT DISCREPANCY =          -0.00     PERCENT DISCREPANCY =          -0.00






         TIME SUMMARY AT END OF TIME STEP   70 IN STRESS PERIOD    2
                    SECONDS     MINUTES      HOURS       DAYS        YEARS
                    -----------------------------------------------------------
   TIME STEP LENGTH  86400.      1440.0      24.000      1.0000     2.73785E-03
 STRESS PERIOD TIME 6.04800E+06 1.00800E+05  1680.0      70.000     0.19165    
         TOTAL TIME 6.13440E+06 1.02240E+05  1704.0      71.000     0.19439    
1

 SOLVING FOR HEAD 

 OUTPUT CONTROL FOR STRESS PERIOD    2   TIME STEP   71
    SAVE HEAD FOR ALL LAYERS
    SAVE DRAWDOWN FOR ALL LAYERS
    SAVE BUDGET
    PRINT HEAD FOR ALL LAYERS
    PRINT BUDGET
 UBDSV1 SAVING "         STORAGE" ON UNIT  53 AT TIME STEP 71, STRESS PERIOD   2
 UBDSV2 SAVING "   CONSTANT HEAD" ON UNIT  53 AT TIME STEP 71, STRESS PERIOD   2
 UBDSV1 SAVING "FLOW RIGHT FACE " ON UNIT  53 AT TIME STEP 71, STRESS PERIOD   2
 UBDSV1 SAVING "FLOW FRONT FACE " ON UNIT  53 AT TIME STEP 71, STRESS PERIOD   2
1
              HEAD IN LAYER   1 AT END OF TIME STEP  71 IN STRESS PERIOD    2
  ---------------------------------------------------------------------------

            1           2           3           4           5           6           7           8           9          10
 ........................................................................................................................
   1    9.991       8.883       7.774       6.666       5.557       4.448       3.339       2.230       1.121      1.1095E-02
   2    9.991       8.883       7.774       6.666       5.557       4.448       3.339       2.230       1.121      1.1095E-02
   3    9.991       8.883       7.774       6.666       5.557       4.448       3.339       2.230       1.121      1.1095E-02
   4    9.991       8.883       7.774       6.666       5.557       4.448       3.339       2.230       1.121      1.1095E-02
   5    9.991       8.883       7.774       6.666       5.557       4.448       3.339       2.230       1.121      1.1095E-02
   6    9.991       8.883       7.774       6.666       5.557       4.448       3.339       2.230       1.121      1.1095E-02
   7    9.991       8.883       7.774       6.666       5.557       4.448       3.339       2.230       1.121      1.1095E-02
   8    9.991       8.883       7.774       6.666       5.557       4.448       3.339       2.230       1.121      1.1095E-02
   9    9.991       8.883       7.774       6.666       5.557       4.448       3.339       2.230       1.121      1.1095E-02
  10    9.991       8.883       7.774       6.666       5.557       4.448       3.339       2.230       1.121      1.1095E-02

 HEAD WILL BE SAVED ON UNIT   51 AT END OF TIME STEP   71, STRESS PERIOD    2

 DRAWDOWN WILL BE SAVED ON UNIT   52 AT END OF TIME STEP   71, STRESS PERIOD    2
1
  VOLUMETRIC BUDGET FOR ENTIRE MODEL AT END OF TIME STEP   71, STRESS PERIOD   2
  ------------------------------------------------------------------------------

     CUMULATIVE VOLUMES      L**3       RATES FOR THIS TIME STEP      L**3/T
     ------------------                 ------------------------

           IN:                                      IN:
           ---                                      ---
             STORAGE =       24989.6875               STORAGE =           0.6842
       CONSTANT HEAD =           0.0000         CONSTANT HEAD =           0.0000
               WELLS =           0.0000                 WELLS =           0.0000
     HEAD DEP BOUNDS =       31938.9980       HEAD DEP BOUNDS =         554.0767

            TOTAL IN =       56928.6875              TOTAL IN =         554.7609

          OUT:                                     OUT:
          ----                                     ----
             STORAGE =           0.0000               STORAGE =           0.0000
       CONSTANT HEAD =           0.0000         CONSTANT HEAD =           0.0000
               WELLS =           0.0000                 WELLS =           0.0000
     HEAD DEP BOUNDS =       56928.7109       HEAD DEP BOUNDS =         554.7681

           TOTAL OUT =       56928.7109             TOTAL OUT =         554.7681

            IN - OUT =      -2.3438E-02              IN - OUT =      -7.1411E-03

 PERCENT DISCREPANCY =          -0.00     PERCENT DISCREPANCY =          -0.00






         TIME SUMMARY AT END OF TIME STEP   71 IN STRESS PERIOD    2
                    SECONDS     MINUTES      HOURS       DAYS        YEARS
                    -----------------------------------------------------------
   TIME STEP LENGTH  86400.      1440.0      24.000      1.0000     2.73785E-03
 STRESS PERIOD TIME 6.13440E+06 1.02240E+05  1704.0      71.000     0.19439    
         TOTAL TIME 6.22080E+06 1.03680E+05  1728.0      72.000     0.19713    
1

 SOLVING FOR HEAD 

 OUTPUT CONTROL FOR STRESS PERIOD    2   TIME STEP   72
    SAVE HEAD FOR ALL LAYERS
    SAVE DRAWDOWN FOR ALL LAYERS
    SAVE BUDGET
    PRINT HEAD FOR ALL LAYERS
    PRINT BUDGET
 UBDSV1 SAVING "         STORAGE" ON UNIT  53 AT TIME STEP 72, STRESS PERIOD   2
 UBDSV2 SAVING "   CONSTANT HEAD" ON UNIT  53 AT TIME STEP 72, STRESS PERIOD   2
 UBDSV1 SAVING "FLOW RIGHT FACE " ON UNIT  53 AT TIME STEP 72, STRESS PERIOD   2
 UBDSV1 SAVING "FLOW FRONT FACE " ON UNIT  53 AT TIME STEP 72, STRESS PERIOD   2
1
              HEAD IN LAYER   1 AT END OF TIME STEP  72 IN STRESS PERIOD    2
  ---------------------------------------------------------------------------

            1           2           3           4           5           6           7           8           9          10
 ........................................................................................................................
   1    9.991       8.883       7.774       6.666       5.557       4.448       3.339       2.230       1.121      1.1095E-02
   2    9.991       8.883       7.774       6.666       5.557       4.448       3.339       2.230       1.121      1.1095E-02
   3    9.991       8.883       7.774       6.666       5.557       4.448       3.339       2.230       1.121      1.1095E-02
   4    9.991       8.883       7.774       6.666       5.557       4.448       3.339       2.230       1.121      1.1095E-02
   5    9.991       8.883       7.774       6.666       5.557       4.448       3.339       2.230       1.121      1.1095E-02
   6    9.991       8.883       7.774       6.666       5.557       4.448       3.339       2.230       1.121      1.1095E-02
   7    9.991       8.883       7.774       6.666       5.557       4.448       3.339       2.230       1.121      1.1095E-02
   8    9.991       8.883       7.774       6.666       5.557       4.448       3.339       2.230       1.121      1.1095E-02
   9    9.991       8.883       7.774       6.666       5.557       4.448       3.339       2.230       1.121      1.1095E-02
  10    9.991       8.883       7.774       6.666       5.557       4.448       3.339       2.230       1.121      1.1095E-02

 HEAD WILL BE SAVED ON UNIT   51 AT END OF TIME STEP   72, STRESS PERIOD    2

 DRAWDOWN WILL BE SAVED ON UNIT   52 AT END OF TIME STEP   72, STRESS PERIOD    2
1
  VOLUMETRIC BUDGET FOR ENTIRE MODEL AT END OF TIME STEP   72, STRESS PERIOD   2
  ------------------------------------------------------------------------------

     CUMULATIVE VOLUMES      L**3       RATES FOR THIS TIME STEP      L**3/T
     ------------------                 ------------------------

           IN:                                      IN:
           ---                                      ---
             STORAGE =       24990.2969               STORAGE =           0.6103
       CONSTANT HEAD =           0.0000         CONSTANT HEAD =           0.0000
               WELLS =           0.0000                 WELLS =           0.0000
     HEAD DEP BOUNDS =       32493.1113       HEAD DEP BOUNDS =         554.1131

            TOTAL IN =       57483.4062              TOTAL IN =         554.7234

          OUT:                                     OUT:
          ----                                     ----
             STORAGE =           0.0000               STORAGE =           0.0000
       CONSTANT HEAD =           0.0000         CONSTANT HEAD =           0.0000
               WELLS =           0.0000                 WELLS =           0.0000
     HEAD DEP BOUNDS =       57483.4414       HEAD DEP BOUNDS =         554.7314

           TOTAL OUT =       57483.4414             TOTAL OUT =         554.7314

            IN - OUT =      -3.5156E-02              IN - OUT =      -7.9956E-03

 PERCENT DISCREPANCY =          -0.00     PERCENT DISCREPANCY =          -0.00






         TIME SUMMARY AT END OF TIME STEP   72 IN STRESS PERIOD    2
                    SECONDS     MINUTES      HOURS       DAYS        YEARS
                    -----------------------------------------------------------
   TIME STEP LENGTH  86400.      1440.0      24.000      1.0000     2.73785E-03
 STRESS PERIOD TIME 6.22080E+06 1.03680E+05  1728.0      72.000     0.19713    
         TOTAL TIME 6.30720E+06 1.05120E+05  1752.0      73.000     0.19986    
1

 SOLVING FOR HEAD 

 OUTPUT CONTROL FOR STRESS PERIOD    2   TIME STEP   73
    SAVE HEAD FOR ALL LAYERS
    SAVE DRAWDOWN FOR ALL LAYERS
    SAVE BUDGET
    PRINT HEAD FOR ALL LAYERS
    PRINT BUDGET
 UBDSV1 SAVING "         STORAGE" ON UNIT  53 AT TIME STEP 73, STRESS PERIOD   2
 UBDSV2 SAVING "   CONSTANT HEAD" ON UNIT  53 AT TIME STEP 73, STRESS PERIOD   2
 UBDSV1 SAVING "FLOW RIGHT FACE " ON UNIT  53 AT TIME STEP 73, STRESS PERIOD   2
 UBDSV1 SAVING "FLOW FRONT FACE " ON UNIT  53 AT TIME STEP 73, STRESS PERIOD   2
1
              HEAD IN LAYER   1 AT END OF TIME STEP  73 IN STRESS PERIOD    2
  ---------------------------------------------------------------------------

            1           2           3           4           5           6           7           8           9          10
 ........................................................................................................................
   1    9.991       8.882       7.774       6.666       5.557       4.448       3.339       2.230       1.120      1.1094E-02
   2    9.991       8.882       7.774       6.666       5.557       4.448       3.339       2.230       1.120      1.1094E-02
   3    9.991       8.882       7.774       6.666       5.557       4.448       3.339       2.230       1.120      1.1094E-02
   4    9.991       8.882       7.774       6.666       5.557       4.448       3.339       2.230       1.120      1.1094E-02
   5    9.991       8.882       7.774       6.666       5.557       4.448       3.339       2.230       1.120      1.1094E-02
   6    9.991       8.882       7.774       6.666       5.557       4.448       3.339       2.230       1.120      1.1094E-02
   7    9.991       8.882       7.774       6.666       5.557       4.448       3.339       2.230       1.120      1.1094E-02
   8    9.991       8.882       7.774       6.666       5.557       4.448       3.339       2.230       1.120      1.1094E-02
   9    9.991       8.882       7.774       6.666       5.557       4.448       3.339       2.230       1.120      1.1094E-02
  10    9.991       8.882       7.774       6.666       5.557       4.448       3.339       2.230       1.120      1.1094E-02

 HEAD WILL BE SAVED ON UNIT   51 AT END OF TIME STEP   73, STRESS PERIOD    2

 DRAWDOWN WILL BE SAVED ON UNIT   52 AT END OF TIME STEP   73, STRESS PERIOD    2
1
  VOLUMETRIC BUDGET FOR ENTIRE MODEL AT END OF TIME STEP   73, STRESS PERIOD   2
  ------------------------------------------------------------------------------

     CUMULATIVE VOLUMES      L**3       RATES FOR THIS TIME STEP      L**3/T
     ------------------                 ------------------------

           IN:                                      IN:
           ---                                      ---
             STORAGE =       24990.8418               STORAGE =           0.5445
       CONSTANT HEAD =           0.0000         CONSTANT HEAD =           0.0000
               WELLS =           0.0000                 WELLS =           0.0000
     HEAD DEP BOUNDS =       33047.2578       HEAD DEP BOUNDS =         554.1456

            TOTAL IN =       58038.1016              TOTAL IN =         554.6902

          OUT:                                     OUT:
          ----                                     ----
             STORAGE =           0.0000               STORAGE =           0.0000
       CONSTANT HEAD =           0.0000         CONSTANT HEAD =           0.0000
               WELLS =           0.0000                 WELLS =           0.0000
     HEAD DEP BOUNDS =       58038.1406       HEAD DEP BOUNDS =         554.6987

           TOTAL OUT =       58038.1406             TOTAL OUT =         554.6987

            IN - OUT =      -3.9062E-02              IN - OUT =      -8.4839E-03

 PERCENT DISCREPANCY =          -0.00     PERCENT DISCREPANCY =          -0.00






         TIME SUMMARY AT END OF TIME STEP   73 IN STRESS PERIOD    2
                    SECONDS     MINUTES      HOURS       DAYS        YEARS
                    -----------------------------------------------------------
   TIME STEP LENGTH  86400.      1440.0      24.000      1.0000     2.73785E-03
 STRESS PERIOD TIME 6.30720E+06 1.05120E+05  1752.0      73.000     0.19986    
         TOTAL TIME 6.39360E+06 1.06560E+05  1776.0      74.000     0.20260    
1

 SOLVING FOR HEAD 

 OUTPUT CONTROL FOR STRESS PERIOD    2   TIME STEP   74
    SAVE HEAD FOR ALL LAYERS
    SAVE DRAWDOWN FOR ALL LAYERS
    SAVE BUDGET
    PRINT HEAD FOR ALL LAYERS
    PRINT BUDGET
 UBDSV1 SAVING "         STORAGE" ON UNIT  53 AT TIME STEP 74, STRESS PERIOD   2
 UBDSV2 SAVING "   CONSTANT HEAD" ON UNIT  53 AT TIME STEP 74, STRESS PERIOD   2
 UBDSV1 SAVING "FLOW RIGHT FACE " ON UNIT  53 AT TIME STEP 74, STRESS PERIOD   2
 UBDSV1 SAVING "FLOW FRONT FACE " ON UNIT  53 AT TIME STEP 74, STRESS PERIOD   2
1
              HEAD IN LAYER   1 AT END OF TIME STEP  74 IN STRESS PERIOD    2
  ---------------------------------------------------------------------------

            1           2           3           4           5           6           7           8           9          10
 ........................................................................................................................
   1    9.991       8.882       7.774       6.665       5.557       4.448       3.339       2.230       1.120      1.1093E-02
   2    9.991       8.882       7.774       6.665       5.557       4.448       3.339       2.230       1.120      1.1093E-02
   3    9.991       8.882       7.774       6.665       5.557       4.448       3.339       2.230       1.120      1.1093E-02
   4    9.991       8.882       7.774       6.665       5.557       4.448       3.339       2.230       1.120      1.1093E-02
   5    9.991       8.882       7.774       6.665       5.557       4.448       3.339       2.230       1.120      1.1093E-02
   6    9.991       8.882       7.774       6.665       5.557       4.448       3.339       2.230       1.120      1.1093E-02
   7    9.991       8.882       7.774       6.665       5.557       4.448       3.339       2.230       1.120      1.1093E-02
   8    9.991       8.882       7.774       6.665       5.557       4.448       3.339       2.230       1.120      1.1093E-02
   9    9.991       8.882       7.774       6.665       5.557       4.448       3.339       2.230       1.120      1.1093E-02
  10    9.991       8.882       7.774       6.665       5.557       4.448       3.339       2.230       1.120      1.1093E-02

 HEAD WILL BE SAVED ON UNIT   51 AT END OF TIME STEP   74, STRESS PERIOD    2

 DRAWDOWN WILL BE SAVED ON UNIT   52 AT END OF TIME STEP   74, STRESS PERIOD    2
1
  VOLUMETRIC BUDGET FOR ENTIRE MODEL AT END OF TIME STEP   74, STRESS PERIOD   2
  ------------------------------------------------------------------------------

     CUMULATIVE VOLUMES      L**3       RATES FOR THIS TIME STEP      L**3/T
     ------------------                 ------------------------

           IN:                                      IN:
           ---                                      ---
             STORAGE =       24991.3281               STORAGE =           0.4866
       CONSTANT HEAD =           0.0000         CONSTANT HEAD =           0.0000
               WELLS =           0.0000                 WELLS =           0.0000
     HEAD DEP BOUNDS =       33601.4336       HEAD DEP BOUNDS =         554.1745

            TOTAL IN =       58592.7617              TOTAL IN =         554.6611

          OUT:                                     OUT:
          ----                                     ----
             STORAGE =           0.0000               STORAGE =           0.0000
       CONSTANT HEAD =           0.0000         CONSTANT HEAD =           0.0000
               WELLS =           0.0000                 WELLS =           0.0000
     HEAD DEP BOUNDS =       58592.8086       HEAD DEP BOUNDS =         554.6694

           TOTAL OUT =       58592.8086             TOTAL OUT =         554.6694

            IN - OUT =      -4.6875E-02              IN - OUT =      -8.3008E-03

 PERCENT DISCREPANCY =          -0.00     PERCENT DISCREPANCY =          -0.00






         TIME SUMMARY AT END OF TIME STEP   74 IN STRESS PERIOD    2
                    SECONDS     MINUTES      HOURS       DAYS        YEARS
                    -----------------------------------------------------------
   TIME STEP LENGTH  86400.      1440.0      24.000      1.0000     2.73785E-03
 STRESS PERIOD TIME 6.39360E+06 1.06560E+05  1776.0      74.000     0.20260    
         TOTAL TIME 6.48000E+06 1.08000E+05  1800.0      75.000     0.20534    
1

 SOLVING FOR HEAD 

 OUTPUT CONTROL FOR STRESS PERIOD    2   TIME STEP   75
    SAVE HEAD FOR ALL LAYERS
    SAVE DRAWDOWN FOR ALL LAYERS
    SAVE BUDGET
    PRINT HEAD FOR ALL LAYERS
    PRINT BUDGET
 UBDSV1 SAVING "         STORAGE" ON UNIT  53 AT TIME STEP 75, STRESS PERIOD   2
 UBDSV2 SAVING "   CONSTANT HEAD" ON UNIT  53 AT TIME STEP 75, STRESS PERIOD   2
 UBDSV1 SAVING "FLOW RIGHT FACE " ON UNIT  53 AT TIME STEP 75, STRESS PERIOD   2
 UBDSV1 SAVING "FLOW FRONT FACE " ON UNIT  53 AT TIME STEP 75, STRESS PERIOD   2
1
              HEAD IN LAYER   1 AT END OF TIME STEP  75 IN STRESS PERIOD    2
  ---------------------------------------------------------------------------

            1           2           3           4           5           6           7           8           9          10
 ........................................................................................................................
   1    9.991       8.882       7.774       6.665       5.557       4.448       3.339       2.230       1.120      1.1093E-02
   2    9.991       8.882       7.774       6.665       5.557       4.448       3.339       2.230       1.120      1.1093E-02
   3    9.991       8.882       7.774       6.665       5.557       4.448       3.339       2.230       1.120      1.1093E-02
   4    9.991       8.882       7.774       6.665       5.557       4.448       3.339       2.230       1.120      1.1093E-02
   5    9.991       8.882       7.774       6.665       5.557       4.448       3.339       2.230       1.120      1.1093E-02
   6    9.991       8.882       7.774       6.665       5.557       4.448       3.339       2.230       1.120      1.1093E-02
   7    9.991       8.882       7.774       6.665       5.557       4.448       3.339       2.230       1.120      1.1093E-02
   8    9.991       8.882       7.774       6.665       5.557       4.448       3.339       2.230       1.120      1.1093E-02
   9    9.991       8.882       7.774       6.665       5.557       4.448       3.339       2.230       1.120      1.1093E-02
  10    9.991       8.882       7.774       6.665       5.557       4.448       3.339       2.230       1.120      1.1093E-02

 HEAD WILL BE SAVED ON UNIT   51 AT END OF TIME STEP   75, STRESS PERIOD    2

 DRAWDOWN WILL BE SAVED ON UNIT   52 AT END OF TIME STEP   75, STRESS PERIOD    2
1
  VOLUMETRIC BUDGET FOR ENTIRE MODEL AT END OF TIME STEP   75, STRESS PERIOD   2
  ------------------------------------------------------------------------------

     CUMULATIVE VOLUMES      L**3       RATES FOR THIS TIME STEP      L**3/T
     ------------------                 ------------------------

           IN:                                      IN:
           ---                                      ---
             STORAGE =       24991.7617               STORAGE =           0.4340
       CONSTANT HEAD =           0.0000         CONSTANT HEAD =           0.0000
               WELLS =           0.0000                 WELLS =           0.0000
     HEAD DEP BOUNDS =       34155.6328       HEAD DEP BOUNDS =         554.2003

            TOTAL IN =       59147.3945              TOTAL IN =         554.6342

          OUT:                                     OUT:
          ----                                     ----
             STORAGE =           0.0000               STORAGE =           0.0000
       CONSTANT HEAD =           0.0000         CONSTANT HEAD =           0.0000
               WELLS =           0.0000                 WELLS =           0.0000
     HEAD DEP BOUNDS =       59147.4531       HEAD DEP BOUNDS =         554.6434

           TOTAL OUT =       59147.4531             TOTAL OUT =         554.6434

            IN - OUT =      -5.8594E-02              IN - OUT =      -9.1553E-03

 PERCENT DISCREPANCY =          -0.00     PERCENT DISCREPANCY =          -0.00






         TIME SUMMARY AT END OF TIME STEP   75 IN STRESS PERIOD    2
                    SECONDS     MINUTES      HOURS       DAYS        YEARS
                    -----------------------------------------------------------
   TIME STEP LENGTH  86400.      1440.0      24.000      1.0000     2.73785E-03
 STRESS PERIOD TIME 6.48000E+06 1.08000E+05  1800.0      75.000     0.20534    
         TOTAL TIME 6.56640E+06 1.09440E+05  1824.0      76.000     0.20808    
1

 SOLVING FOR HEAD 

 OUTPUT CONTROL FOR STRESS PERIOD    2   TIME STEP   76
    SAVE HEAD FOR ALL LAYERS
    SAVE DRAWDOWN FOR ALL LAYERS
    SAVE BUDGET
    PRINT HEAD FOR ALL LAYERS
    PRINT BUDGET
 UBDSV1 SAVING "         STORAGE" ON UNIT  53 AT TIME STEP 76, STRESS PERIOD   2
 UBDSV2 SAVING "   CONSTANT HEAD" ON UNIT  53 AT TIME STEP 76, STRESS PERIOD   2
 UBDSV1 SAVING "FLOW RIGHT FACE " ON UNIT  53 AT TIME STEP 76, STRESS PERIOD   2
 UBDSV1 SAVING "FLOW FRONT FACE " ON UNIT  53 AT TIME STEP 76, STRESS PERIOD   2
1
              HEAD IN LAYER   1 AT END OF TIME STEP  76 IN STRESS PERIOD    2
  ---------------------------------------------------------------------------

            1           2           3           4           5           6           7           8           9          10
 ........................................................................................................................
   1    9.991       8.882       7.774       6.665       5.556       4.448       3.339       2.230       1.120      1.1092E-02
   2    9.991       8.882       7.774       6.665       5.556       4.448       3.339       2.230       1.120      1.1092E-02
   3    9.991       8.882       7.774       6.665       5.556       4.448       3.339       2.230       1.120      1.1092E-02
   4    9.991       8.882       7.774       6.665       5.556       4.448       3.339       2.230       1.120      1.1092E-02
   5    9.991       8.882       7.774       6.665       5.556       4.448       3.339       2.230       1.120      1.1092E-02
   6    9.991       8.882       7.774       6.665       5.556       4.448       3.339       2.230       1.120      1.1092E-02
   7    9.991       8.882       7.774       6.665       5.556       4.448       3.339       2.230       1.120      1.1092E-02
   8    9.991       8.882       7.774       6.665       5.556       4.448       3.339       2.230       1.120      1.1092E-02
   9    9.991       8.882       7.774       6.665       5.556       4.448       3.339       2.230       1.120      1.1092E-02
  10    9.991       8.882       7.774       6.665       5.556       4.448       3.339       2.230       1.120      1.1092E-02

 HEAD WILL BE SAVED ON UNIT   51 AT END OF TIME STEP   76, STRESS PERIOD    2

 DRAWDOWN WILL BE SAVED ON UNIT   52 AT END OF TIME STEP   76, STRESS PERIOD    2
1
  VOLUMETRIC BUDGET FOR ENTIRE MODEL AT END OF TIME STEP   76, STRESS PERIOD   2
  ------------------------------------------------------------------------------

     CUMULATIVE VOLUMES      L**3       RATES FOR THIS TIME STEP      L**3/T
     ------------------                 ------------------------

           IN:                                      IN:
           ---                                      ---
             STORAGE =       24992.1484               STORAGE =           0.3877
       CONSTANT HEAD =           0.0000         CONSTANT HEAD =           0.0000
               WELLS =           0.0000                 WELLS =           0.0000
     HEAD DEP BOUNDS =       34709.8555       HEAD DEP BOUNDS =         554.2233

            TOTAL IN =       59702.0039              TOTAL IN =         554.6110

          OUT:                                     OUT:
          ----                                     ----
             STORAGE =           0.0000               STORAGE =           0.0000
       CONSTANT HEAD =           0.0000         CONSTANT HEAD =           0.0000
               WELLS =           0.0000                 WELLS =           0.0000
     HEAD DEP BOUNDS =       59702.0742       HEAD DEP BOUNDS =         554.6201

           TOTAL OUT =       59702.0742             TOTAL OUT =         554.6201

            IN - OUT =      -7.0312E-02              IN - OUT =      -9.0332E-03

 PERCENT DISCREPANCY =          -0.00     PERCENT DISCREPANCY =          -0.00






         TIME SUMMARY AT END OF TIME STEP   76 IN STRESS PERIOD    2
                    SECONDS     MINUTES      HOURS       DAYS        YEARS
                    -----------------------------------------------------------
   TIME STEP LENGTH  86400.      1440.0      24.000      1.0000     2.73785E-03
 STRESS PERIOD TIME 6.56640E+06 1.09440E+05  1824.0      76.000     0.20808    
         TOTAL TIME 6.65280E+06 1.10880E+05  1848.0      77.000     0.21081    
1

 SOLVING FOR HEAD 

 OUTPUT CONTROL FOR STRESS PERIOD    2   TIME STEP   77
    SAVE HEAD FOR ALL LAYERS
    SAVE DRAWDOWN FOR ALL LAYERS
    SAVE BUDGET
    PRINT HEAD FOR ALL LAYERS
    PRINT BUDGET
 UBDSV1 SAVING "         STORAGE" ON UNIT  53 AT TIME STEP 77, STRESS PERIOD   2
 UBDSV2 SAVING "   CONSTANT HEAD" ON UNIT  53 AT TIME STEP 77, STRESS PERIOD   2
 UBDSV1 SAVING "FLOW RIGHT FACE " ON UNIT  53 AT TIME STEP 77, STRESS PERIOD   2
 UBDSV1 SAVING "FLOW FRONT FACE " ON UNIT  53 AT TIME STEP 77, STRESS PERIOD   2
1
              HEAD IN LAYER   1 AT END OF TIME STEP  77 IN STRESS PERIOD    2
  ---------------------------------------------------------------------------

            1           2           3           4           5           6           7           8           9          10
 ........................................................................................................................
   1    9.991       8.882       7.774       6.665       5.556       4.447       3.339       2.229       1.120      1.1092E-02
   2    9.991       8.882       7.774       6.665       5.556       4.447       3.339       2.229       1.120      1.1092E-02
   3    9.991       8.882       7.774       6.665       5.556       4.447       3.339       2.229       1.120      1.1092E-02
   4    9.991       8.882       7.774       6.665       5.556       4.447       3.339       2.229       1.120      1.1092E-02
   5    9.991       8.882       7.774       6.665       5.556       4.447       3.339       2.229       1.120      1.1092E-02
   6    9.991       8.882       7.774       6.665       5.556       4.447       3.339       2.229       1.120      1.1092E-02
   7    9.991       8.882       7.774       6.665       5.556       4.447       3.339       2.229       1.120      1.1092E-02
   8    9.991       8.882       7.774       6.665       5.556       4.447       3.339       2.229       1.120      1.1092E-02
   9    9.991       8.882       7.774       6.665       5.556       4.447       3.339       2.229       1.120      1.1092E-02
  10    9.991       8.882       7.774       6.665       5.556       4.447       3.339       2.229       1.120      1.1092E-02

 HEAD WILL BE SAVED ON UNIT   51 AT END OF TIME STEP   77, STRESS PERIOD    2

 DRAWDOWN WILL BE SAVED ON UNIT   52 AT END OF TIME STEP   77, STRESS PERIOD    2
1
  VOLUMETRIC BUDGET FOR ENTIRE MODEL AT END OF TIME STEP   77, STRESS PERIOD   2
  ------------------------------------------------------------------------------

     CUMULATIVE VOLUMES      L**3       RATES FOR THIS TIME STEP      L**3/T
     ------------------                 ------------------------

           IN:                                      IN:
           ---                                      ---
             STORAGE =       24992.4941               STORAGE =           0.3462
       CONSTANT HEAD =           0.0000         CONSTANT HEAD =           0.0000
               WELLS =           0.0000                 WELLS =           0.0000
     HEAD DEP BOUNDS =       35264.0977       HEAD DEP BOUNDS =         554.2438

            TOTAL IN =       60256.5938              TOTAL IN =         554.5900

          OUT:                                     OUT:
          ----                                     ----
             STORAGE =           0.0000               STORAGE =           0.0000
       CONSTANT HEAD =           0.0000         CONSTANT HEAD =           0.0000
               WELLS =           0.0000                 WELLS =           0.0000
     HEAD DEP BOUNDS =       60256.6719       HEAD DEP BOUNDS =         554.5992

           TOTAL OUT =       60256.6719             TOTAL OUT =         554.5992

            IN - OUT =      -7.8125E-02              IN - OUT =      -9.2163E-03

 PERCENT DISCREPANCY =          -0.00     PERCENT DISCREPANCY =          -0.00






         TIME SUMMARY AT END OF TIME STEP   77 IN STRESS PERIOD    2
                    SECONDS     MINUTES      HOURS       DAYS        YEARS
                    -----------------------------------------------------------
   TIME STEP LENGTH  86400.      1440.0      24.000      1.0000     2.73785E-03
 STRESS PERIOD TIME 6.65280E+06 1.10880E+05  1848.0      77.000     0.21081    
         TOTAL TIME 6.73920E+06 1.12320E+05  1872.0      78.000     0.21355    
1

 SOLVING FOR HEAD 

 OUTPUT CONTROL FOR STRESS PERIOD    2   TIME STEP   78
    SAVE HEAD FOR ALL LAYERS
    SAVE DRAWDOWN FOR ALL LAYERS
    SAVE BUDGET
    PRINT HEAD FOR ALL LAYERS
    PRINT BUDGET
 UBDSV1 SAVING "         STORAGE" ON UNIT  53 AT TIME STEP 78, STRESS PERIOD   2
 UBDSV2 SAVING "   CONSTANT HEAD" ON UNIT  53 AT TIME STEP 78, STRESS PERIOD   2
 UBDSV1 SAVING "FLOW RIGHT FACE " ON UNIT  53 AT TIME STEP 78, STRESS PERIOD   2
 UBDSV1 SAVING "FLOW FRONT FACE " ON UNIT  53 AT TIME STEP 78, STRESS PERIOD   2
1
              HEAD IN LAYER   1 AT END OF TIME STEP  78 IN STRESS PERIOD    2
  ---------------------------------------------------------------------------

            1           2           3           4           5           6           7           8           9          10
 ........................................................................................................................
   1    9.991       8.882       7.774       6.665       5.556       4.447       3.338       2.229       1.120      1.1092E-02
   2    9.991       8.882       7.774       6.665       5.556       4.447       3.338       2.229       1.120      1.1092E-02
   3    9.991       8.882       7.774       6.665       5.556       4.447       3.338       2.229       1.120      1.1092E-02
   4    9.991       8.882       7.774       6.665       5.556       4.447       3.338       2.229       1.120      1.1092E-02
   5    9.991       8.882       7.774       6.665       5.556       4.447       3.338       2.229       1.120      1.1092E-02
   6    9.991       8.882       7.774       6.665       5.556       4.447       3.338       2.229       1.120      1.1092E-02
   7    9.991       8.882       7.774       6.665       5.556       4.447       3.338       2.229       1.120      1.1092E-02
   8    9.991       8.882       7.774       6.665       5.556       4.447       3.338       2.229       1.120      1.1092E-02
   9    9.991       8.882       7.774       6.665       5.556       4.447       3.338       2.229       1.120      1.1092E-02
  10    9.991       8.882       7.774       6.665       5.556       4.447       3.338       2.229       1.120      1.1092E-02

 HEAD WILL BE SAVED ON UNIT   51 AT END OF TIME STEP   78, STRESS PERIOD    2

 DRAWDOWN WILL BE SAVED ON UNIT   52 AT END OF TIME STEP   78, STRESS PERIOD    2
1
  VOLUMETRIC BUDGET FOR ENTIRE MODEL AT END OF TIME STEP   78, STRESS PERIOD   2
  ------------------------------------------------------------------------------

     CUMULATIVE VOLUMES      L**3       RATES FOR THIS TIME STEP      L**3/T
     ------------------                 ------------------------

           IN:                                      IN:
           ---                                      ---
             STORAGE =       24992.8027               STORAGE =           0.3089
       CONSTANT HEAD =           0.0000         CONSTANT HEAD =           0.0000
               WELLS =           0.0000                 WELLS =           0.0000
     HEAD DEP BOUNDS =       35818.3594       HEAD DEP BOUNDS =         554.2623

            TOTAL IN =       60811.1641              TOTAL IN =         554.5712

          OUT:                                     OUT:
          ----                                     ----
             STORAGE =           0.0000               STORAGE =           0.0000
       CONSTANT HEAD =           0.0000         CONSTANT HEAD =           0.0000
               WELLS =           0.0000                 WELLS =           0.0000
     HEAD DEP BOUNDS =       60811.2539       HEAD DEP BOUNDS =         554.5807

           TOTAL OUT =       60811.2539             TOTAL OUT =         554.5807

            IN - OUT =      -8.9844E-02              IN - OUT =      -9.5215E-03

 PERCENT DISCREPANCY =          -0.00     PERCENT DISCREPANCY =          -0.00






         TIME SUMMARY AT END OF TIME STEP   78 IN STRESS PERIOD    2
                    SECONDS     MINUTES      HOURS       DAYS        YEARS
                    -----------------------------------------------------------
   TIME STEP LENGTH  86400.      1440.0      24.000      1.0000     2.73785E-03
 STRESS PERIOD TIME 6.73920E+06 1.12320E+05  1872.0      78.000     0.21355    
         TOTAL TIME 6.82560E+06 1.13760E+05  1896.0      79.000     0.21629    
1

 SOLVING FOR HEAD 

 OUTPUT CONTROL FOR STRESS PERIOD    2   TIME STEP   79
    SAVE HEAD FOR ALL LAYERS
    SAVE DRAWDOWN FOR ALL LAYERS
    SAVE BUDGET
    PRINT HEAD FOR ALL LAYERS
    PRINT BUDGET
 UBDSV1 SAVING "         STORAGE" ON UNIT  53 AT TIME STEP 79, STRESS PERIOD   2
 UBDSV2 SAVING "   CONSTANT HEAD" ON UNIT  53 AT TIME STEP 79, STRESS PERIOD   2
 UBDSV1 SAVING "FLOW RIGHT FACE " ON UNIT  53 AT TIME STEP 79, STRESS PERIOD   2
 UBDSV1 SAVING "FLOW FRONT FACE " ON UNIT  53 AT TIME STEP 79, STRESS PERIOD   2
1
              HEAD IN LAYER   1 AT END OF TIME STEP  79 IN STRESS PERIOD    2
  ---------------------------------------------------------------------------

            1           2           3           4           5           6           7           8           9          10
 ........................................................................................................................
   1    9.991       8.882       7.774       6.665       5.556       4.447       3.338       2.229       1.120      1.1091E-02
   2    9.991       8.882       7.774       6.665       5.556       4.447       3.338       2.229       1.120      1.1091E-02
   3    9.991       8.882       7.774       6.665       5.556       4.447       3.338       2.229       1.120      1.1091E-02
   4    9.991       8.882       7.774       6.665       5.556       4.447       3.338       2.229       1.120      1.1091E-02
   5    9.991       8.882       7.774       6.665       5.556       4.447       3.338       2.229       1.120      1.1091E-02
   6    9.991       8.882       7.774       6.665       5.556       4.447       3.338       2.229       1.120      1.1091E-02
   7    9.991       8.882       7.774       6.665       5.556       4.447       3.338       2.229       1.120      1.1091E-02
   8    9.991       8.882       7.774       6.665       5.556       4.447       3.338       2.229       1.120      1.1091E-02
   9    9.991       8.882       7.774       6.665       5.556       4.447       3.338       2.229       1.120      1.1091E-02
  10    9.991       8.882       7.774       6.665       5.556       4.447       3.338       2.229       1.120      1.1091E-02

 HEAD WILL BE SAVED ON UNIT   51 AT END OF TIME STEP   79, STRESS PERIOD    2

 DRAWDOWN WILL BE SAVED ON UNIT   52 AT END OF TIME STEP   79, STRESS PERIOD    2
1
  VOLUMETRIC BUDGET FOR ENTIRE MODEL AT END OF TIME STEP   79, STRESS PERIOD   2
  ------------------------------------------------------------------------------

     CUMULATIVE VOLUMES      L**3       RATES FOR THIS TIME STEP      L**3/T
     ------------------                 ------------------------

           IN:                                      IN:
           ---                                      ---
             STORAGE =       24993.0781               STORAGE =           0.2759
       CONSTANT HEAD =           0.0000         CONSTANT HEAD =           0.0000
               WELLS =           0.0000                 WELLS =           0.0000
     HEAD DEP BOUNDS =       36372.6367       HEAD DEP BOUNDS =         554.2786

            TOTAL IN =       61365.7148              TOTAL IN =         554.5546

          OUT:                                     OUT:
          ----                                     ----
             STORAGE =           0.0000               STORAGE =           0.0000
       CONSTANT HEAD =           0.0000         CONSTANT HEAD =           0.0000
               WELLS =           0.0000                 WELLS =           0.0000
     HEAD DEP BOUNDS =       61365.8164       HEAD DEP BOUNDS =         554.5641

           TOTAL OUT =       61365.8164             TOTAL OUT =         554.5641

            IN - OUT =          -0.1016              IN - OUT =      -9.5215E-03

 PERCENT DISCREPANCY =          -0.00     PERCENT DISCREPANCY =          -0.00






         TIME SUMMARY AT END OF TIME STEP   79 IN STRESS PERIOD    2
                    SECONDS     MINUTES      HOURS       DAYS        YEARS
                    -----------------------------------------------------------
   TIME STEP LENGTH  86400.      1440.0      24.000      1.0000     2.73785E-03
 STRESS PERIOD TIME 6.82560E+06 1.13760E+05  1896.0      79.000     0.21629    
         TOTAL TIME 6.91200E+06 1.15200E+05  1920.0      80.000     0.21903    
1

 SOLVING FOR HEAD 

 OUTPUT CONTROL FOR STRESS PERIOD    2   TIME STEP   80
    SAVE HEAD FOR ALL LAYERS
    SAVE DRAWDOWN FOR ALL LAYERS
    SAVE BUDGET
    PRINT HEAD FOR ALL LAYERS
    PRINT BUDGET
 UBDSV1 SAVING "         STORAGE" ON UNIT  53 AT TIME STEP 80, STRESS PERIOD   2
 UBDSV2 SAVING "   CONSTANT HEAD" ON UNIT  53 AT TIME STEP 80, STRESS PERIOD   2
 UBDSV1 SAVING "FLOW RIGHT FACE " ON UNIT  53 AT TIME STEP 80, STRESS PERIOD   2
 UBDSV1 SAVING "FLOW FRONT FACE " ON UNIT  53 AT TIME STEP 80, STRESS PERIOD   2
1
              HEAD IN LAYER   1 AT END OF TIME STEP  80 IN STRESS PERIOD    2
  ---------------------------------------------------------------------------

            1           2           3           4           5           6           7           8           9          10
 ........................................................................................................................
   1    9.991       8.882       7.774       6.665       5.556       4.447       3.338       2.229       1.120      1.1091E-02
   2    9.991       8.882       7.774       6.665       5.556       4.447       3.338       2.229       1.120      1.1091E-02
   3    9.991       8.882       7.774       6.665       5.556       4.447       3.338       2.229       1.120      1.1091E-02
   4    9.991       8.882       7.774       6.665       5.556       4.447       3.338       2.229       1.120      1.1091E-02
   5    9.991       8.882       7.774       6.665       5.556       4.447       3.338       2.229       1.120      1.1091E-02
   6    9.991       8.882       7.774       6.665       5.556       4.447       3.338       2.229       1.120      1.1091E-02
   7    9.991       8.882       7.774       6.665       5.556       4.447       3.338       2.229       1.120      1.1091E-02
   8    9.991       8.882       7.774       6.665       5.556       4.447       3.338       2.229       1.120      1.1091E-02
   9    9.991       8.882       7.774       6.665       5.556       4.447       3.338       2.229       1.120      1.1091E-02
  10    9.991       8.882       7.774       6.665       5.556       4.447       3.338       2.229       1.120      1.1091E-02

 HEAD WILL BE SAVED ON UNIT   51 AT END OF TIME STEP   80, STRESS PERIOD    2

 DRAWDOWN WILL BE SAVED ON UNIT   52 AT END OF TIME STEP   80, STRESS PERIOD    2
1
  VOLUMETRIC BUDGET FOR ENTIRE MODEL AT END OF TIME STEP   80, STRESS PERIOD   2
  ------------------------------------------------------------------------------

     CUMULATIVE VOLUMES      L**3       RATES FOR THIS TIME STEP      L**3/T
     ------------------                 ------------------------

           IN:                                      IN:
           ---                                      ---
             STORAGE =       24993.3242               STORAGE =           0.2468
       CONSTANT HEAD =           0.0000         CONSTANT HEAD =           0.0000
               WELLS =           0.0000                 WELLS =           0.0000
     HEAD DEP BOUNDS =       36926.9297       HEAD DEP BOUNDS =         554.2933

            TOTAL IN =       61920.2539              TOTAL IN =         554.5402

          OUT:                                     OUT:
          ----                                     ----
             STORAGE =           0.0000               STORAGE =           0.0000
       CONSTANT HEAD =           0.0000         CONSTANT HEAD =           0.0000
               WELLS =           0.0000                 WELLS =           0.0000
     HEAD DEP BOUNDS =       61920.3672       HEAD DEP BOUNDS =         554.5493

           TOTAL OUT =       61920.3672             TOTAL OUT =         554.5493

            IN - OUT =          -0.1133              IN - OUT =      -9.1553E-03

 PERCENT DISCREPANCY =          -0.00     PERCENT DISCREPANCY =          -0.00






         TIME SUMMARY AT END OF TIME STEP   80 IN STRESS PERIOD    2
                    SECONDS     MINUTES      HOURS       DAYS        YEARS
                    -----------------------------------------------------------
   TIME STEP LENGTH  86400.      1440.0      24.000      1.0000     2.73785E-03
 STRESS PERIOD TIME 6.91200E+06 1.15200E+05  1920.0      80.000     0.21903    
         TOTAL TIME 6.99840E+06 1.16640E+05  1944.0      81.000     0.22177    
1

 SOLVING FOR HEAD 

 OUTPUT CONTROL FOR STRESS PERIOD    2   TIME STEP   81
    SAVE HEAD FOR ALL LAYERS
    SAVE DRAWDOWN FOR ALL LAYERS
    SAVE BUDGET
    PRINT HEAD FOR ALL LAYERS
    PRINT BUDGET
 UBDSV1 SAVING "         STORAGE" ON UNIT  53 AT TIME STEP 81, STRESS PERIOD   2
 UBDSV2 SAVING "   CONSTANT HEAD" ON UNIT  53 AT TIME STEP 81, STRESS PERIOD   2
 UBDSV1 SAVING "FLOW RIGHT FACE " ON UNIT  53 AT TIME STEP 81, STRESS PERIOD   2
 UBDSV1 SAVING "FLOW FRONT FACE " ON UNIT  53 AT TIME STEP 81, STRESS PERIOD   2
1
              HEAD IN LAYER   1 AT END OF TIME STEP  81 IN STRESS PERIOD    2
  ---------------------------------------------------------------------------

            1           2           3           4           5           6           7           8           9          10
 ........................................................................................................................
   1    9.991       8.882       7.773       6.665       5.556       4.447       3.338       2.229       1.120      1.1091E-02
   2    9.991       8.882       7.773       6.665       5.556       4.447       3.338       2.229       1.120      1.1091E-02
   3    9.991       8.882       7.773       6.665       5.556       4.447       3.338       2.229       1.120      1.1091E-02
   4    9.991       8.882       7.773       6.665       5.556       4.447       3.338       2.229       1.120      1.1091E-02
   5    9.991       8.882       7.773       6.665       5.556       4.447       3.338       2.229       1.120      1.1091E-02
   6    9.991       8.882       7.773       6.665       5.556       4.447       3.338       2.229       1.120      1.1091E-02
   7    9.991       8.882       7.773       6.665       5.556       4.447       3.338       2.229       1.120      1.1091E-02
   8    9.991       8.882       7.773       6.665       5.556       4.447       3.338       2.229       1.120      1.1091E-02
   9    9.991       8.882       7.773       6.665       5.556       4.447       3.338       2.229       1.120      1.1091E-02
  10    9.991       8.882       7.773       6.665       5.556       4.447       3.338       2.229       1.120      1.1091E-02

 HEAD WILL BE SAVED ON UNIT   51 AT END OF TIME STEP   81, STRESS PERIOD    2

 DRAWDOWN WILL BE SAVED ON UNIT   52 AT END OF TIME STEP   81, STRESS PERIOD    2
1
  VOLUMETRIC BUDGET FOR ENTIRE MODEL AT END OF TIME STEP   81, STRESS PERIOD   2
  ------------------------------------------------------------------------------

     CUMULATIVE VOLUMES      L**3       RATES FOR THIS TIME STEP      L**3/T
     ------------------                 ------------------------

           IN:                                      IN:
           ---                                      ---
             STORAGE =       24993.5449               STORAGE =           0.2199
       CONSTANT HEAD =           0.0000         CONSTANT HEAD =           0.0000
               WELLS =           0.0000                 WELLS =           0.0000
     HEAD DEP BOUNDS =       37481.2344       HEAD DEP BOUNDS =         554.3066

            TOTAL IN =       62474.7812              TOTAL IN =         554.5265

          OUT:                                     OUT:
          ----                                     ----
             STORAGE =           0.0000               STORAGE =           0.0000
       CONSTANT HEAD =           0.0000         CONSTANT HEAD =           0.0000
               WELLS =           0.0000                 WELLS =           0.0000
     HEAD DEP BOUNDS =       62474.9023       HEAD DEP BOUNDS =         554.5361

           TOTAL OUT =       62474.9023             TOTAL OUT =         554.5361

            IN - OUT =          -0.1211              IN - OUT =      -9.6436E-03

 PERCENT DISCREPANCY =          -0.00     PERCENT DISCREPANCY =          -0.00






         TIME SUMMARY AT END OF TIME STEP   81 IN STRESS PERIOD    2
                    SECONDS     MINUTES      HOURS       DAYS        YEARS
                    -----------------------------------------------------------
   TIME STEP LENGTH  86400.      1440.0      24.000      1.0000     2.73785E-03
 STRESS PERIOD TIME 6.99840E+06 1.16640E+05  1944.0      81.000     0.22177    
         TOTAL TIME 7.08480E+06 1.18080E+05  1968.0      82.000     0.22450    
1

 SOLVING FOR HEAD 

 OUTPUT CONTROL FOR STRESS PERIOD    2   TIME STEP   82
    SAVE HEAD FOR ALL LAYERS
    SAVE DRAWDOWN FOR ALL LAYERS
    SAVE BUDGET
    PRINT HEAD FOR ALL LAYERS
    PRINT BUDGET
 UBDSV1 SAVING "         STORAGE" ON UNIT  53 AT TIME STEP 82, STRESS PERIOD   2
 UBDSV2 SAVING "   CONSTANT HEAD" ON UNIT  53 AT TIME STEP 82, STRESS PERIOD   2
 UBDSV1 SAVING "FLOW RIGHT FACE " ON UNIT  53 AT TIME STEP 82, STRESS PERIOD   2
 UBDSV1 SAVING "FLOW FRONT FACE " ON UNIT  53 AT TIME STEP 82, STRESS PERIOD   2
1
              HEAD IN LAYER   1 AT END OF TIME STEP  82 IN STRESS PERIOD    2
  ---------------------------------------------------------------------------

            1           2           3           4           5           6           7           8           9          10
 ........................................................................................................................
   1    9.991       8.882       7.773       6.665       5.556       4.447       3.338       2.229       1.120      1.1090E-02
   2    9.991       8.882       7.773       6.665       5.556       4.447       3.338       2.229       1.120      1.1090E-02
   3    9.991       8.882       7.773       6.665       5.556       4.447       3.338       2.229       1.120      1.1090E-02
   4    9.991       8.882       7.773       6.665       5.556       4.447       3.338       2.229       1.120      1.1090E-02
   5    9.991       8.882       7.773       6.665       5.556       4.447       3.338       2.229       1.120      1.1090E-02
   6    9.991       8.882       7.773       6.665       5.556       4.447       3.338       2.229       1.120      1.1090E-02
   7    9.991       8.882       7.773       6.665       5.556       4.447       3.338       2.229       1.120      1.1090E-02
   8    9.991       8.882       7.773       6.665       5.556       4.447       3.338       2.229       1.120      1.1090E-02
   9    9.991       8.882       7.773       6.665       5.556       4.447       3.338       2.229       1.120      1.1090E-02
  10    9.991       8.882       7.773       6.665       5.556       4.447       3.338       2.229       1.120      1.1090E-02

 HEAD WILL BE SAVED ON UNIT   51 AT END OF TIME STEP   82, STRESS PERIOD    2

 DRAWDOWN WILL BE SAVED ON UNIT   52 AT END OF TIME STEP   82, STRESS PERIOD    2
1
  VOLUMETRIC BUDGET FOR ENTIRE MODEL AT END OF TIME STEP   82, STRESS PERIOD   2
  ------------------------------------------------------------------------------

     CUMULATIVE VOLUMES      L**3       RATES FOR THIS TIME STEP      L**3/T
     ------------------                 ------------------------

           IN:                                      IN:
           ---                                      ---
             STORAGE =       24993.7402               STORAGE =           0.1961
       CONSTANT HEAD =           0.0000         CONSTANT HEAD =           0.0000
               WELLS =           0.0000                 WELLS =           0.0000
     HEAD DEP BOUNDS =       38035.5508       HEAD DEP BOUNDS =         554.3182

            TOTAL IN =       63029.2891              TOTAL IN =         554.5143

          OUT:                                     OUT:
          ----                                     ----
             STORAGE =           0.0000               STORAGE =           0.0000
       CONSTANT HEAD =           0.0000         CONSTANT HEAD =           0.0000
               WELLS =           0.0000                 WELLS =           0.0000
     HEAD DEP BOUNDS =       63029.4258       HEAD DEP BOUNDS =         554.5243

           TOTAL OUT =       63029.4258             TOTAL OUT =         554.5243

            IN - OUT =          -0.1367              IN - OUT =      -1.0010E-02

 PERCENT DISCREPANCY =          -0.00     PERCENT DISCREPANCY =          -0.00






         TIME SUMMARY AT END OF TIME STEP   82 IN STRESS PERIOD    2
                    SECONDS     MINUTES      HOURS       DAYS        YEARS
                    -----------------------------------------------------------
   TIME STEP LENGTH  86400.      1440.0      24.000      1.0000     2.73785E-03
 STRESS PERIOD TIME 7.08480E+06 1.18080E+05  1968.0      82.000     0.22450    
         TOTAL TIME 7.17120E+06 1.19520E+05  1992.0      83.000     0.22724    
1

 SOLVING FOR HEAD 

 OUTPUT CONTROL FOR STRESS PERIOD    2   TIME STEP   83
    SAVE HEAD FOR ALL LAYERS
    SAVE DRAWDOWN FOR ALL LAYERS
    SAVE BUDGET
    PRINT HEAD FOR ALL LAYERS
    PRINT BUDGET
 UBDSV1 SAVING "         STORAGE" ON UNIT  53 AT TIME STEP 83, STRESS PERIOD   2
 UBDSV2 SAVING "   CONSTANT HEAD" ON UNIT  53 AT TIME STEP 83, STRESS PERIOD   2
 UBDSV1 SAVING "FLOW RIGHT FACE " ON UNIT  53 AT TIME STEP 83, STRESS PERIOD   2
 UBDSV1 SAVING "FLOW FRONT FACE " ON UNIT  53 AT TIME STEP 83, STRESS PERIOD   2
1
              HEAD IN LAYER   1 AT END OF TIME STEP  83 IN STRESS PERIOD    2
  ---------------------------------------------------------------------------

            1           2           3           4           5           6           7           8           9          10
 ........................................................................................................................
   1    9.991       8.882       7.773       6.665       5.556       4.447       3.338       2.229       1.120      1.1090E-02
   2    9.991       8.882       7.773       6.665       5.556       4.447       3.338       2.229       1.120      1.1090E-02
   3    9.991       8.882       7.773       6.665       5.556       4.447       3.338       2.229       1.120      1.1090E-02
   4    9.991       8.882       7.773       6.665       5.556       4.447       3.338       2.229       1.120      1.1090E-02
   5    9.991       8.882       7.773       6.665       5.556       4.447       3.338       2.229       1.120      1.1090E-02
   6    9.991       8.882       7.773       6.665       5.556       4.447       3.338       2.229       1.120      1.1090E-02
   7    9.991       8.882       7.773       6.665       5.556       4.447       3.338       2.229       1.120      1.1090E-02
   8    9.991       8.882       7.773       6.665       5.556       4.447       3.338       2.229       1.120      1.1090E-02
   9    9.991       8.882       7.773       6.665       5.556       4.447       3.338       2.229       1.120      1.1090E-02
  10    9.991       8.882       7.773       6.665       5.556       4.447       3.338       2.229       1.120      1.1090E-02

 HEAD WILL BE SAVED ON UNIT   51 AT END OF TIME STEP   83, STRESS PERIOD    2

 DRAWDOWN WILL BE SAVED ON UNIT   52 AT END OF TIME STEP   83, STRESS PERIOD    2
1
  VOLUMETRIC BUDGET FOR ENTIRE MODEL AT END OF TIME STEP   83, STRESS PERIOD   2
  ------------------------------------------------------------------------------

     CUMULATIVE VOLUMES      L**3       RATES FOR THIS TIME STEP      L**3/T
     ------------------                 ------------------------

           IN:                                      IN:
           ---                                      ---
             STORAGE =       24993.9160               STORAGE =           0.1756
       CONSTANT HEAD =           0.0000         CONSTANT HEAD =           0.0000
               WELLS =           0.0000                 WELLS =           0.0000
     HEAD DEP BOUNDS =       38589.8789       HEAD DEP BOUNDS =         554.3286

            TOTAL IN =       63583.7969              TOTAL IN =         554.5042

          OUT:                                     OUT:
          ----                                     ----
             STORAGE =           0.0000               STORAGE =           0.0000
       CONSTANT HEAD =           0.0000         CONSTANT HEAD =           0.0000
               WELLS =           0.0000                 WELLS =           0.0000
     HEAD DEP BOUNDS =       63583.9414       HEAD DEP BOUNDS =         554.5138

           TOTAL OUT =       63583.9414             TOTAL OUT =         554.5138

            IN - OUT =          -0.1445              IN - OUT =      -9.5825E-03

 PERCENT DISCREPANCY =          -0.00     PERCENT DISCREPANCY =          -0.00






         TIME SUMMARY AT END OF TIME STEP   83 IN STRESS PERIOD    2
                    SECONDS     MINUTES      HOURS       DAYS        YEARS
                    -----------------------------------------------------------
   TIME STEP LENGTH  86400.      1440.0      24.000      1.0000     2.73785E-03
 STRESS PERIOD TIME 7.17120E+06 1.19520E+05  1992.0      83.000     0.22724    
         TOTAL TIME 7.25760E+06 1.20960E+05  2016.0      84.000     0.22998    
1

 SOLVING FOR HEAD 

 OUTPUT CONTROL FOR STRESS PERIOD    2   TIME STEP   84
    SAVE HEAD FOR ALL LAYERS
    SAVE DRAWDOWN FOR ALL LAYERS
    SAVE BUDGET
    PRINT HEAD FOR ALL LAYERS
    PRINT BUDGET
 UBDSV1 SAVING "         STORAGE" ON UNIT  53 AT TIME STEP 84, STRESS PERIOD   2
 UBDSV2 SAVING "   CONSTANT HEAD" ON UNIT  53 AT TIME STEP 84, STRESS PERIOD   2
 UBDSV1 SAVING "FLOW RIGHT FACE " ON UNIT  53 AT TIME STEP 84, STRESS PERIOD   2
 UBDSV1 SAVING "FLOW FRONT FACE " ON UNIT  53 AT TIME STEP 84, STRESS PERIOD   2
1
              HEAD IN LAYER   1 AT END OF TIME STEP  84 IN STRESS PERIOD    2
  ---------------------------------------------------------------------------

            1           2           3           4           5           6           7           8           9          10
 ........................................................................................................................
   1    9.991       8.882       7.773       6.665       5.556       4.447       3.338       2.229       1.120      1.1090E-02
   2    9.991       8.882       7.773       6.665       5.556       4.447       3.338       2.229       1.120      1.1090E-02
   3    9.991       8.882       7.773       6.665       5.556       4.447       3.338       2.229       1.120      1.1090E-02
   4    9.991       8.882       7.773       6.665       5.556       4.447       3.338       2.229       1.120      1.1090E-02
   5    9.991       8.882       7.773       6.665       5.556       4.447       3.338       2.229       1.120      1.1090E-02
   6    9.991       8.882       7.773       6.665       5.556       4.447       3.338       2.229       1.120      1.1090E-02
   7    9.991       8.882       7.773       6.665       5.556       4.447       3.338       2.229       1.120      1.1090E-02
   8    9.991       8.882       7.773       6.665       5.556       4.447       3.338       2.229       1.120      1.1090E-02
   9    9.991       8.882       7.773       6.665       5.556       4.447       3.338       2.229       1.120      1.1090E-02
  10    9.991       8.882       7.773       6.665       5.556       4.447       3.338       2.229       1.120      1.1090E-02

 HEAD WILL BE SAVED ON UNIT   51 AT END OF TIME STEP   84, STRESS PERIOD    2

 DRAWDOWN WILL BE SAVED ON UNIT   52 AT END OF TIME STEP   84, STRESS PERIOD    2
1
  VOLUMETRIC BUDGET FOR ENTIRE MODEL AT END OF TIME STEP   84, STRESS PERIOD   2
  ------------------------------------------------------------------------------

     CUMULATIVE VOLUMES      L**3       RATES FOR THIS TIME STEP      L**3/T
     ------------------                 ------------------------

           IN:                                      IN:
           ---                                      ---
             STORAGE =       24994.0723               STORAGE =           0.1563
       CONSTANT HEAD =           0.0000         CONSTANT HEAD =           0.0000
               WELLS =           0.0000                 WELLS =           0.0000
     HEAD DEP BOUNDS =       39144.2188       HEAD DEP BOUNDS =         554.3380

            TOTAL IN =       64138.2891              TOTAL IN =         554.4942

          OUT:                                     OUT:
          ----                                     ----
             STORAGE =           0.0000               STORAGE =           0.0000
       CONSTANT HEAD =           0.0000         CONSTANT HEAD =           0.0000
               WELLS =           0.0000                 WELLS =           0.0000
     HEAD DEP BOUNDS =       64138.4453       HEAD DEP BOUNDS =         554.5044

           TOTAL OUT =       64138.4453             TOTAL OUT =         554.5044

            IN - OUT =          -0.1562              IN - OUT =      -1.0193E-02

 PERCENT DISCREPANCY =          -0.00     PERCENT DISCREPANCY =          -0.00






         TIME SUMMARY AT END OF TIME STEP   84 IN STRESS PERIOD    2
                    SECONDS     MINUTES      HOURS       DAYS        YEARS
                    -----------------------------------------------------------
   TIME STEP LENGTH  86400.      1440.0      24.000      1.0000     2.73785E-03
 STRESS PERIOD TIME 7.25760E+06 1.20960E+05  2016.0      84.000     0.22998    
         TOTAL TIME 7.34400E+06 1.22400E+05  2040.0      85.000     0.23272    
1

 SOLVING FOR HEAD 

 OUTPUT CONTROL FOR STRESS PERIOD    2   TIME STEP   85
    SAVE HEAD FOR ALL LAYERS
    SAVE DRAWDOWN FOR ALL LAYERS
    SAVE BUDGET
    PRINT HEAD FOR ALL LAYERS
    PRINT BUDGET
 UBDSV1 SAVING "         STORAGE" ON UNIT  53 AT TIME STEP 85, STRESS PERIOD   2
 UBDSV2 SAVING "   CONSTANT HEAD" ON UNIT  53 AT TIME STEP 85, STRESS PERIOD   2
 UBDSV1 SAVING "FLOW RIGHT FACE " ON UNIT  53 AT TIME STEP 85, STRESS PERIOD   2
 UBDSV1 SAVING "FLOW FRONT FACE " ON UNIT  53 AT TIME STEP 85, STRESS PERIOD   2
1
              HEAD IN LAYER   1 AT END OF TIME STEP  85 IN STRESS PERIOD    2
  ---------------------------------------------------------------------------

            1           2           3           4           5           6           7           8           9          10
 ........................................................................................................................
   1    9.991       8.882       7.773       6.665       5.556       4.447       3.338       2.229       1.120      1.1090E-02
   2    9.991       8.882       7.773       6.665       5.556       4.447       3.338       2.229       1.120      1.1090E-02
   3    9.991       8.882       7.773       6.665       5.556       4.447       3.338       2.229       1.120      1.1090E-02
   4    9.991       8.882       7.773       6.665       5.556       4.447       3.338       2.229       1.120      1.1090E-02
   5    9.991       8.882       7.773       6.665       5.556       4.447       3.338       2.229       1.120      1.1090E-02
   6    9.991       8.882       7.773       6.665       5.556       4.447       3.338       2.229       1.120      1.1090E-02
   7    9.991       8.882       7.773       6.665       5.556       4.447       3.338       2.229       1.120      1.1090E-02
   8    9.991       8.882       7.773       6.665       5.556       4.447       3.338       2.229       1.120      1.1090E-02
   9    9.991       8.882       7.773       6.665       5.556       4.447       3.338       2.229       1.120      1.1090E-02
  10    9.991       8.882       7.773       6.665       5.556       4.447       3.338       2.229       1.120      1.1090E-02

 HEAD WILL BE SAVED ON UNIT   51 AT END OF TIME STEP   85, STRESS PERIOD    2

 DRAWDOWN WILL BE SAVED ON UNIT   52 AT END OF TIME STEP   85, STRESS PERIOD    2
1
  VOLUMETRIC BUDGET FOR ENTIRE MODEL AT END OF TIME STEP   85, STRESS PERIOD   2
  ------------------------------------------------------------------------------

     CUMULATIVE VOLUMES      L**3       RATES FOR THIS TIME STEP      L**3/T
     ------------------                 ------------------------

           IN:                                      IN:
           ---                                      ---
             STORAGE =       24994.2129               STORAGE =           0.1397
       CONSTANT HEAD =           0.0000         CONSTANT HEAD =           0.0000
               WELLS =           0.0000                 WELLS =           0.0000
     HEAD DEP BOUNDS =       39698.5664       HEAD DEP BOUNDS =         554.3463

            TOTAL IN =       64692.7812              TOTAL IN =         554.4860

          OUT:                                     OUT:
          ----                                     ----
             STORAGE =           0.0000               STORAGE =           0.0000
       CONSTANT HEAD =           0.0000         CONSTANT HEAD =           0.0000
               WELLS =           0.0000                 WELLS =           0.0000
     HEAD DEP BOUNDS =       64692.9414       HEAD DEP BOUNDS =         554.4960

           TOTAL OUT =       64692.9414             TOTAL OUT =         554.4960

            IN - OUT =          -0.1602              IN - OUT =      -1.0010E-02

 PERCENT DISCREPANCY =          -0.00     PERCENT DISCREPANCY =          -0.00






         TIME SUMMARY AT END OF TIME STEP   85 IN STRESS PERIOD    2
                    SECONDS     MINUTES      HOURS       DAYS        YEARS
                    -----------------------------------------------------------
   TIME STEP LENGTH  86400.      1440.0      24.000      1.0000     2.73785E-03
 STRESS PERIOD TIME 7.34400E+06 1.22400E+05  2040.0      85.000     0.23272    
         TOTAL TIME 7.43040E+06 1.23840E+05  2064.0      86.000     0.23546    
1

 SOLVING FOR HEAD 

 OUTPUT CONTROL FOR STRESS PERIOD    2   TIME STEP   86
    SAVE HEAD FOR ALL LAYERS
    SAVE DRAWDOWN FOR ALL LAYERS
    SAVE BUDGET
    PRINT HEAD FOR ALL LAYERS
    PRINT BUDGET
 UBDSV1 SAVING "         STORAGE" ON UNIT  53 AT TIME STEP 86, STRESS PERIOD   2
 UBDSV2 SAVING "   CONSTANT HEAD" ON UNIT  53 AT TIME STEP 86, STRESS PERIOD   2
 UBDSV1 SAVING "FLOW RIGHT FACE " ON UNIT  53 AT TIME STEP 86, STRESS PERIOD   2
 UBDSV1 SAVING "FLOW FRONT FACE " ON UNIT  53 AT TIME STEP 86, STRESS PERIOD   2
1
              HEAD IN LAYER   1 AT END OF TIME STEP  86 IN STRESS PERIOD    2
  ---------------------------------------------------------------------------

            1           2           3           4           5           6           7           8           9          10
 ........................................................................................................................
   1    9.991       8.882       7.773       6.665       5.556       4.447       3.338       2.229       1.120      1.1090E-02
   2    9.991       8.882       7.773       6.665       5.556       4.447       3.338       2.229       1.120      1.1090E-02
   3    9.991       8.882       7.773       6.665       5.556       4.447       3.338       2.229       1.120      1.1090E-02
   4    9.991       8.882       7.773       6.665       5.556       4.447       3.338       2.229       1.120      1.1090E-02
   5    9.991       8.882       7.773       6.665       5.556       4.447       3.338       2.229       1.120      1.1090E-02
   6    9.991       8.882       7.773       6.665       5.556       4.447       3.338       2.229       1.120      1.1090E-02
   7    9.991       8.882       7.773       6.665       5.556       4.447       3.338       2.229       1.120      1.1090E-02
   8    9.991       8.882       7.773       6.665       5.556       4.447       3.338       2.229       1.120      1.1090E-02
   9    9.991       8.882       7.773       6.665       5.556       4.447       3.338       2.229       1.120      1.1090E-02
  10    9.991       8.882       7.773       6.665       5.556       4.447       3.338       2.229       1.120      1.1090E-02

 HEAD WILL BE SAVED ON UNIT   51 AT END OF TIME STEP   86, STRESS PERIOD    2

 DRAWDOWN WILL BE SAVED ON UNIT   52 AT END OF TIME STEP   86, STRESS PERIOD    2
1
  VOLUMETRIC BUDGET FOR ENTIRE MODEL AT END OF TIME STEP   86, STRESS PERIOD   2
  ------------------------------------------------------------------------------

     CUMULATIVE VOLUMES      L**3       RATES FOR THIS TIME STEP      L**3/T
     ------------------                 ------------------------

           IN:                                      IN:
           ---                                      ---
             STORAGE =       24994.3379               STORAGE =           0.1245
       CONSTANT HEAD =           0.0000         CONSTANT HEAD =           0.0000
               WELLS =           0.0000                 WELLS =           0.0000
     HEAD DEP BOUNDS =       40252.9219       HEAD DEP BOUNDS =         554.3537

            TOTAL IN =       65247.2578              TOTAL IN =         554.4782

          OUT:                                     OUT:
          ----                                     ----
             STORAGE =           0.0000               STORAGE =           0.0000
       CONSTANT HEAD =           0.0000         CONSTANT HEAD =           0.0000
               WELLS =           0.0000                 WELLS =           0.0000
     HEAD DEP BOUNDS =       65247.4297       HEAD DEP BOUNDS =         554.4885

           TOTAL OUT =       65247.4297             TOTAL OUT =         554.4885

            IN - OUT =          -0.1719              IN - OUT =      -1.0315E-02

 PERCENT DISCREPANCY =          -0.00     PERCENT DISCREPANCY =          -0.00






         TIME SUMMARY AT END OF TIME STEP   86 IN STRESS PERIOD    2
                    SECONDS     MINUTES      HOURS       DAYS        YEARS
                    -----------------------------------------------------------
   TIME STEP LENGTH  86400.      1440.0      24.000      1.0000     2.73785E-03
 STRESS PERIOD TIME 7.43040E+06 1.23840E+05  2064.0      86.000     0.23546    
         TOTAL TIME 7.51680E+06 1.25280E+05  2088.0      87.000     0.23819    
1

 SOLVING FOR HEAD 

 OUTPUT CONTROL FOR STRESS PERIOD    2   TIME STEP   87
    SAVE HEAD FOR ALL LAYERS
    SAVE DRAWDOWN FOR ALL LAYERS
    SAVE BUDGET
    PRINT HEAD FOR ALL LAYERS
    PRINT BUDGET
 UBDSV1 SAVING "         STORAGE" ON UNIT  53 AT TIME STEP 87, STRESS PERIOD   2
 UBDSV2 SAVING "   CONSTANT HEAD" ON UNIT  53 AT TIME STEP 87, STRESS PERIOD   2
 UBDSV1 SAVING "FLOW RIGHT FACE " ON UNIT  53 AT TIME STEP 87, STRESS PERIOD   2
 UBDSV1 SAVING "FLOW FRONT FACE " ON UNIT  53 AT TIME STEP 87, STRESS PERIOD   2
1
              HEAD IN LAYER   1 AT END OF TIME STEP  87 IN STRESS PERIOD    2
  ---------------------------------------------------------------------------

            1           2           3           4           5           6           7           8           9          10
 ........................................................................................................................
   1    9.991       8.882       7.773       6.664       5.556       4.447       3.338       2.229       1.120      1.1090E-02
   2    9.991       8.882       7.773       6.664       5.556       4.447       3.338       2.229       1.120      1.1090E-02
   3    9.991       8.882       7.773       6.664       5.556       4.447       3.338       2.229       1.120      1.1090E-02
   4    9.991       8.882       7.773       6.664       5.556       4.447       3.338       2.229       1.120      1.1090E-02
   5    9.991       8.882       7.773       6.664       5.556       4.447       3.338       2.229       1.120      1.1090E-02
   6    9.991       8.882       7.773       6.664       5.556       4.447       3.338       2.229       1.120      1.1090E-02
   7    9.991       8.882       7.773       6.664       5.556       4.447       3.338       2.229       1.120      1.1090E-02
   8    9.991       8.882       7.773       6.664       5.556       4.447       3.338       2.229       1.120      1.1090E-02
   9    9.991       8.882       7.773       6.664       5.556       4.447       3.338       2.229       1.120      1.1090E-02
  10    9.991       8.882       7.773       6.664       5.556       4.447       3.338       2.229       1.120      1.1090E-02

 HEAD WILL BE SAVED ON UNIT   51 AT END OF TIME STEP   87, STRESS PERIOD    2

 DRAWDOWN WILL BE SAVED ON UNIT   52 AT END OF TIME STEP   87, STRESS PERIOD    2
1
  VOLUMETRIC BUDGET FOR ENTIRE MODEL AT END OF TIME STEP   87, STRESS PERIOD   2
  ------------------------------------------------------------------------------

     CUMULATIVE VOLUMES      L**3       RATES FOR THIS TIME STEP      L**3/T
     ------------------                 ------------------------

           IN:                                      IN:
           ---                                      ---
             STORAGE =       24994.4492               STORAGE =           0.1115
       CONSTANT HEAD =           0.0000         CONSTANT HEAD =           0.0000
               WELLS =           0.0000                 WELLS =           0.0000
     HEAD DEP BOUNDS =       40807.2812       HEAD DEP BOUNDS =         554.3604

            TOTAL IN =       65801.7344              TOTAL IN =         554.4719

          OUT:                                     OUT:
          ----                                     ----
             STORAGE =           0.0000               STORAGE =           0.0000
       CONSTANT HEAD =           0.0000         CONSTANT HEAD =           0.0000
               WELLS =           0.0000                 WELLS =           0.0000
     HEAD DEP BOUNDS =       65801.9141       HEAD DEP BOUNDS =         554.4818

           TOTAL OUT =       65801.9141             TOTAL OUT =         554.4818

            IN - OUT =          -0.1797              IN - OUT =      -9.9487E-03

 PERCENT DISCREPANCY =          -0.00     PERCENT DISCREPANCY =          -0.00






         TIME SUMMARY AT END OF TIME STEP   87 IN STRESS PERIOD    2
                    SECONDS     MINUTES      HOURS       DAYS        YEARS
                    -----------------------------------------------------------
   TIME STEP LENGTH  86400.      1440.0      24.000      1.0000     2.73785E-03
 STRESS PERIOD TIME 7.51680E+06 1.25280E+05  2088.0      87.000     0.23819    
         TOTAL TIME 7.60320E+06 1.26720E+05  2112.0      88.000     0.24093    
1

 SOLVING FOR HEAD 

 OUTPUT CONTROL FOR STRESS PERIOD    2   TIME STEP   88
    SAVE HEAD FOR ALL LAYERS
    SAVE DRAWDOWN FOR ALL LAYERS
    SAVE BUDGET
    PRINT HEAD FOR ALL LAYERS
    PRINT BUDGET
 UBDSV1 SAVING "         STORAGE" ON UNIT  53 AT TIME STEP 88, STRESS PERIOD   2
 UBDSV2 SAVING "   CONSTANT HEAD" ON UNIT  53 AT TIME STEP 88, STRESS PERIOD   2
 UBDSV1 SAVING "FLOW RIGHT FACE " ON UNIT  53 AT TIME STEP 88, STRESS PERIOD   2
 UBDSV1 SAVING "FLOW FRONT FACE " ON UNIT  53 AT TIME STEP 88, STRESS PERIOD   2
1
              HEAD IN LAYER   1 AT END OF TIME STEP  88 IN STRESS PERIOD    2
  ---------------------------------------------------------------------------

            1           2           3           4           5           6           7           8           9          10
 ........................................................................................................................
   1    9.991       8.882       7.773       6.664       5.556       4.447       3.338       2.229       1.120      1.1090E-02
   2    9.991       8.882       7.773       6.664       5.556       4.447       3.338       2.229       1.120      1.1090E-02
   3    9.991       8.882       7.773       6.664       5.556       4.447       3.338       2.229       1.120      1.1090E-02
   4    9.991       8.882       7.773       6.664       5.556       4.447       3.338       2.229       1.120      1.1090E-02
   5    9.991       8.882       7.773       6.664       5.556       4.447       3.338       2.229       1.120      1.1090E-02
   6    9.991       8.882       7.773       6.664       5.556       4.447       3.338       2.229       1.120      1.1090E-02
   7    9.991       8.882       7.773       6.664       5.556       4.447       3.338       2.229       1.120      1.1090E-02
   8    9.991       8.882       7.773       6.664       5.556       4.447       3.338       2.229       1.120      1.1090E-02
   9    9.991       8.882       7.773       6.664       5.556       4.447       3.338       2.229       1.120      1.1090E-02
  10    9.991       8.882       7.773       6.664       5.556       4.447       3.338       2.229       1.120      1.1090E-02

 HEAD WILL BE SAVED ON UNIT   51 AT END OF TIME STEP   88, STRESS PERIOD    2

 DRAWDOWN WILL BE SAVED ON UNIT   52 AT END OF TIME STEP   88, STRESS PERIOD    2
1
  VOLUMETRIC BUDGET FOR ENTIRE MODEL AT END OF TIME STEP   88, STRESS PERIOD   2
  ------------------------------------------------------------------------------

     CUMULATIVE VOLUMES      L**3       RATES FOR THIS TIME STEP      L**3/T
     ------------------                 ------------------------

           IN:                                      IN:
           ---                                      ---
             STORAGE =       24994.5488               STORAGE =       9.9547E-02
       CONSTANT HEAD =           0.0000         CONSTANT HEAD =           0.0000
               WELLS =           0.0000                 WELLS =           0.0000
     HEAD DEP BOUNDS =       41361.6484       HEAD DEP BOUNDS =         554.3663

            TOTAL IN =       66356.1953              TOTAL IN =         554.4658

          OUT:                                     OUT:
          ----                                     ----
             STORAGE =           0.0000               STORAGE =           0.0000
       CONSTANT HEAD =           0.0000         CONSTANT HEAD =           0.0000
               WELLS =           0.0000                 WELLS =           0.0000
     HEAD DEP BOUNDS =       66356.3906       HEAD DEP BOUNDS =         554.4759

           TOTAL OUT =       66356.3906             TOTAL OUT =         554.4759

            IN - OUT =          -0.1953              IN - OUT =      -1.0071E-02

 PERCENT DISCREPANCY =          -0.00     PERCENT DISCREPANCY =          -0.00






         TIME SUMMARY AT END OF TIME STEP   88 IN STRESS PERIOD    2
                    SECONDS     MINUTES      HOURS       DAYS        YEARS
                    -----------------------------------------------------------
   TIME STEP LENGTH  86400.      1440.0      24.000      1.0000     2.73785E-03
 STRESS PERIOD TIME 7.60320E+06 1.26720E+05  2112.0      88.000     0.24093    
         TOTAL TIME 7.68960E+06 1.28160E+05  2136.0      89.000     0.24367    
1

 SOLVING FOR HEAD 

 OUTPUT CONTROL FOR STRESS PERIOD    2   TIME STEP   89
    SAVE HEAD FOR ALL LAYERS
    SAVE DRAWDOWN FOR ALL LAYERS
    SAVE BUDGET
    PRINT HEAD FOR ALL LAYERS
    PRINT BUDGET
 UBDSV1 SAVING "         STORAGE" ON UNIT  53 AT TIME STEP 89, STRESS PERIOD   2
 UBDSV2 SAVING "   CONSTANT HEAD" ON UNIT  53 AT TIME STEP 89, STRESS PERIOD   2
 UBDSV1 SAVING "FLOW RIGHT FACE " ON UNIT  53 AT TIME STEP 89, STRESS PERIOD   2
 UBDSV1 SAVING "FLOW FRONT FACE " ON UNIT  53 AT TIME STEP 89, STRESS PERIOD   2
1
              HEAD IN LAYER   1 AT END OF TIME STEP  89 IN STRESS PERIOD    2
  ---------------------------------------------------------------------------

            1           2           3           4           5           6           7           8           9          10
 ........................................................................................................................
   1    9.991       8.882       7.773       6.664       5.556       4.447       3.338       2.229       1.120      1.1089E-02
   2    9.991       8.882       7.773       6.664       5.556       4.447       3.338       2.229       1.120      1.1089E-02
   3    9.991       8.882       7.773       6.664       5.556       4.447       3.338       2.229       1.120      1.1089E-02
   4    9.991       8.882       7.773       6.664       5.556       4.447       3.338       2.229       1.120      1.1089E-02
   5    9.991       8.882       7.773       6.664       5.556       4.447       3.338       2.229       1.120      1.1089E-02
   6    9.991       8.882       7.773       6.664       5.556       4.447       3.338       2.229       1.120      1.1089E-02
   7    9.991       8.882       7.773       6.664       5.556       4.447       3.338       2.229       1.120      1.1089E-02
   8    9.991       8.882       7.773       6.664       5.556       4.447       3.338       2.229       1.120      1.1089E-02
   9    9.991       8.882       7.773       6.664       5.556       4.447       3.338       2.229       1.120      1.1089E-02
  10    9.991       8.882       7.773       6.664       5.556       4.447       3.338       2.229       1.120      1.1089E-02

 HEAD WILL BE SAVED ON UNIT   51 AT END OF TIME STEP   89, STRESS PERIOD    2

 DRAWDOWN WILL BE SAVED ON UNIT   52 AT END OF TIME STEP   89, STRESS PERIOD    2
1
  VOLUMETRIC BUDGET FOR ENTIRE MODEL AT END OF TIME STEP   89, STRESS PERIOD   2
  ------------------------------------------------------------------------------

     CUMULATIVE VOLUMES      L**3       RATES FOR THIS TIME STEP      L**3/T
     ------------------                 ------------------------

           IN:                                      IN:
           ---                                      ---
             STORAGE =       24994.6367               STORAGE =       8.8440E-02
       CONSTANT HEAD =           0.0000         CONSTANT HEAD =           0.0000
               WELLS =           0.0000                 WELLS =           0.0000
     HEAD DEP BOUNDS =       41916.0195       HEAD DEP BOUNDS =         554.3715

            TOTAL IN =       66910.6562              TOTAL IN =         554.4600

          OUT:                                     OUT:
          ----                                     ----
             STORAGE =           0.0000               STORAGE =           0.0000
       CONSTANT HEAD =           0.0000         CONSTANT HEAD =           0.0000
               WELLS =           0.0000                 WELLS =           0.0000
     HEAD DEP BOUNDS =       66910.8594       HEAD DEP BOUNDS =         554.4705

           TOTAL OUT =       66910.8594             TOTAL OUT =         554.4705

            IN - OUT =          -0.2031              IN - OUT =      -1.0559E-02

 PERCENT DISCREPANCY =          -0.00     PERCENT DISCREPANCY =          -0.00






         TIME SUMMARY AT END OF TIME STEP   89 IN STRESS PERIOD    2
                    SECONDS     MINUTES      HOURS       DAYS        YEARS
                    -----------------------------------------------------------
   TIME STEP LENGTH  86400.      1440.0      24.000      1.0000     2.73785E-03
 STRESS PERIOD TIME 7.68960E+06 1.28160E+05  2136.0      89.000     0.24367    
         TOTAL TIME 7.77600E+06 1.29600E+05  2160.0      90.000     0.24641    
1

 SOLVING FOR HEAD 

 OUTPUT CONTROL FOR STRESS PERIOD    2   TIME STEP   90
    SAVE HEAD FOR ALL LAYERS
    SAVE DRAWDOWN FOR ALL LAYERS
    SAVE BUDGET
    PRINT HEAD FOR ALL LAYERS
    PRINT BUDGET
 UBDSV1 SAVING "         STORAGE" ON UNIT  53 AT TIME STEP 90, STRESS PERIOD   2
 UBDSV2 SAVING "   CONSTANT HEAD" ON UNIT  53 AT TIME STEP 90, STRESS PERIOD   2
 UBDSV1 SAVING "FLOW RIGHT FACE " ON UNIT  53 AT TIME STEP 90, STRESS PERIOD   2
 UBDSV1 SAVING "FLOW FRONT FACE " ON UNIT  53 AT TIME STEP 90, STRESS PERIOD   2
1
              HEAD IN LAYER   1 AT END OF TIME STEP  90 IN STRESS PERIOD    2
  ---------------------------------------------------------------------------

            1           2           3           4           5           6           7           8           9          10
 ........................................................................................................................
   1    9.991       8.882       7.773       6.664       5.556       4.447       3.338       2.229       1.120      1.1089E-02
   2    9.991       8.882       7.773       6.664       5.556       4.447       3.338       2.229       1.120      1.1089E-02
   3    9.991       8.882       7.773       6.664       5.556       4.447       3.338       2.229       1.120      1.1089E-02
   4    9.991       8.882       7.773       6.664       5.556       4.447       3.338       2.229       1.120      1.1089E-02
   5    9.991       8.882       7.773       6.664       5.556       4.447       3.338       2.229       1.120      1.1089E-02
   6    9.991       8.882       7.773       6.664       5.556       4.447       3.338       2.229       1.120      1.1089E-02
   7    9.991       8.882       7.773       6.664       5.556       4.447       3.338       2.229       1.120      1.1089E-02
   8    9.991       8.882       7.773       6.664       5.556       4.447       3.338       2.229       1.120      1.1089E-02
   9    9.991       8.882       7.773       6.664       5.556       4.447       3.338       2.229       1.120      1.1089E-02
  10    9.991       8.882       7.773       6.664       5.556       4.447       3.338       2.229       1.120      1.1089E-02

 HEAD WILL BE SAVED ON UNIT   51 AT END OF TIME STEP   90, STRESS PERIOD    2

 DRAWDOWN WILL BE SAVED ON UNIT   52 AT END OF TIME STEP   90, STRESS PERIOD    2
1
  VOLUMETRIC BUDGET FOR ENTIRE MODEL AT END OF TIME STEP   90, STRESS PERIOD   2
  ------------------------------------------------------------------------------

     CUMULATIVE VOLUMES      L**3       RATES FOR THIS TIME STEP      L**3/T
     ------------------                 ------------------------

           IN:                                      IN:
           ---                                      ---
             STORAGE =       24994.7148               STORAGE =       7.8859E-02
       CONSTANT HEAD =           0.0000         CONSTANT HEAD =           0.0000
               WELLS =           0.0000                 WELLS =           0.0000
     HEAD DEP BOUNDS =       42470.3945       HEAD DEP BOUNDS =         554.3762

            TOTAL IN =       67465.1094              TOTAL IN =         554.4550

          OUT:                                     OUT:
          ----                                     ----
             STORAGE =           0.0000               STORAGE =           0.0000
       CONSTANT HEAD =           0.0000         CONSTANT HEAD =           0.0000
               WELLS =           0.0000                 WELLS =           0.0000
     HEAD DEP BOUNDS =       67465.3281       HEAD DEP BOUNDS =         554.4658

           TOTAL OUT =       67465.3281             TOTAL OUT =         554.4658

            IN - OUT =          -0.2188              IN - OUT =      -1.0742E-02

 PERCENT DISCREPANCY =          -0.00     PERCENT DISCREPANCY =          -0.00






         TIME SUMMARY AT END OF TIME STEP   90 IN STRESS PERIOD    2
                    SECONDS     MINUTES      HOURS       DAYS        YEARS
                    -----------------------------------------------------------
   TIME STEP LENGTH  86400.      1440.0      24.000      1.0000     2.73785E-03
 STRESS PERIOD TIME 7.77600E+06 1.29600E+05  2160.0      90.000     0.24641    
         TOTAL TIME 7.86240E+06 1.31040E+05  2184.0      91.000     0.24914    
1

 SOLVING FOR HEAD 

 OUTPUT CONTROL FOR STRESS PERIOD    2   TIME STEP   91
    SAVE HEAD FOR ALL LAYERS
    SAVE DRAWDOWN FOR ALL LAYERS
    SAVE BUDGET
    PRINT HEAD FOR ALL LAYERS
    PRINT BUDGET
 UBDSV1 SAVING "         STORAGE" ON UNIT  53 AT TIME STEP 91, STRESS PERIOD   2
 UBDSV2 SAVING "   CONSTANT HEAD" ON UNIT  53 AT TIME STEP 91, STRESS PERIOD   2
 UBDSV1 SAVING "FLOW RIGHT FACE " ON UNIT  53 AT TIME STEP 91, STRESS PERIOD   2
 UBDSV1 SAVING "FLOW FRONT FACE " ON UNIT  53 AT TIME STEP 91, STRESS PERIOD   2
1
              HEAD IN LAYER   1 AT END OF TIME STEP  91 IN STRESS PERIOD    2
  ---------------------------------------------------------------------------

            1           2           3           4           5           6           7           8           9          10
 ........................................................................................................................
   1    9.991       8.882       7.773       6.664       5.556       4.447       3.338       2.229       1.120      1.1089E-02
   2    9.991       8.882       7.773       6.664       5.556       4.447       3.338       2.229       1.120      1.1089E-02
   3    9.991       8.882       7.773       6.664       5.556       4.447       3.338       2.229       1.120      1.1089E-02
   4    9.991       8.882       7.773       6.664       5.556       4.447       3.338       2.229       1.120      1.1089E-02
   5    9.991       8.882       7.773       6.664       5.556       4.447       3.338       2.229       1.120      1.1089E-02
   6    9.991       8.882       7.773       6.664       5.556       4.447       3.338       2.229       1.120      1.1089E-02
   7    9.991       8.882       7.773       6.664       5.556       4.447       3.338       2.229       1.120      1.1089E-02
   8    9.991       8.882       7.773       6.664       5.556       4.447       3.338       2.229       1.120      1.1089E-02
   9    9.991       8.882       7.773       6.664       5.556       4.447       3.338       2.229       1.120      1.1089E-02
  10    9.991       8.882       7.773       6.664       5.556       4.447       3.338       2.229       1.120      1.1089E-02

 HEAD WILL BE SAVED ON UNIT   51 AT END OF TIME STEP   91, STRESS PERIOD    2

 DRAWDOWN WILL BE SAVED ON UNIT   52 AT END OF TIME STEP   91, STRESS PERIOD    2
1
  VOLUMETRIC BUDGET FOR ENTIRE MODEL AT END OF TIME STEP   91, STRESS PERIOD   2
  ------------------------------------------------------------------------------

     CUMULATIVE VOLUMES      L**3       RATES FOR THIS TIME STEP      L**3/T
     ------------------                 ------------------------

           IN:                                      IN:
           ---                                      ---
             STORAGE =       24994.7852               STORAGE =       7.0729E-02
       CONSTANT HEAD =           0.0000         CONSTANT HEAD =           0.0000
               WELLS =           0.0000                 WELLS =           0.0000
     HEAD DEP BOUNDS =       43024.7734       HEAD DEP BOUNDS =         554.3804

            TOTAL IN =       68019.5625              TOTAL IN =         554.4511

          OUT:                                     OUT:
          ----                                     ----
             STORAGE =           0.0000               STORAGE =           0.0000
       CONSTANT HEAD =           0.0000         CONSTANT HEAD =           0.0000
               WELLS =           0.0000                 WELLS =           0.0000
     HEAD DEP BOUNDS =       68019.7891       HEAD DEP BOUNDS =         554.4615

           TOTAL OUT =       68019.7891             TOTAL OUT =         554.4615

            IN - OUT =          -0.2266              IN - OUT =      -1.0437E-02

 PERCENT DISCREPANCY =          -0.00     PERCENT DISCREPANCY =          -0.00






         TIME SUMMARY AT END OF TIME STEP   91 IN STRESS PERIOD    2
                    SECONDS     MINUTES      HOURS       DAYS        YEARS
                    -----------------------------------------------------------
   TIME STEP LENGTH  86400.      1440.0      24.000      1.0000     2.73785E-03
 STRESS PERIOD TIME 7.86240E+06 1.31040E+05  2184.0      91.000     0.24914    
         TOTAL TIME 7.94880E+06 1.32480E+05  2208.0      92.000     0.25188    
1

 SOLVING FOR HEAD 

 OUTPUT CONTROL FOR STRESS PERIOD    2   TIME STEP   92
    SAVE HEAD FOR ALL LAYERS
    SAVE DRAWDOWN FOR ALL LAYERS
    SAVE BUDGET
    PRINT HEAD FOR ALL LAYERS
    PRINT BUDGET
 UBDSV1 SAVING "         STORAGE" ON UNIT  53 AT TIME STEP 92, STRESS PERIOD   2
 UBDSV2 SAVING "   CONSTANT HEAD" ON UNIT  53 AT TIME STEP 92, STRESS PERIOD   2
 UBDSV1 SAVING "FLOW RIGHT FACE " ON UNIT  53 AT TIME STEP 92, STRESS PERIOD   2
 UBDSV1 SAVING "FLOW FRONT FACE " ON UNIT  53 AT TIME STEP 92, STRESS PERIOD   2
1
              HEAD IN LAYER   1 AT END OF TIME STEP  92 IN STRESS PERIOD    2
  ---------------------------------------------------------------------------

            1           2           3           4           5           6           7           8           9          10
 ........................................................................................................................
   1    9.991       8.882       7.773       6.664       5.556       4.447       3.338       2.229       1.120      1.1089E-02
   2    9.991       8.882       7.773       6.664       5.556       4.447       3.338       2.229       1.120      1.1089E-02
   3    9.991       8.882       7.773       6.664       5.556       4.447       3.338       2.229       1.120      1.1089E-02
   4    9.991       8.882       7.773       6.664       5.556       4.447       3.338       2.229       1.120      1.1089E-02
   5    9.991       8.882       7.773       6.664       5.556       4.447       3.338       2.229       1.120      1.1089E-02
   6    9.991       8.882       7.773       6.664       5.556       4.447       3.338       2.229       1.120      1.1089E-02
   7    9.991       8.882       7.773       6.664       5.556       4.447       3.338       2.229       1.120      1.1089E-02
   8    9.991       8.882       7.773       6.664       5.556       4.447       3.338       2.229       1.120      1.1089E-02
   9    9.991       8.882       7.773       6.664       5.556       4.447       3.338       2.229       1.120      1.1089E-02
  10    9.991       8.882       7.773       6.664       5.556       4.447       3.338       2.229       1.120      1.1089E-02

 HEAD WILL BE SAVED ON UNIT   51 AT END OF TIME STEP   92, STRESS PERIOD    2

 DRAWDOWN WILL BE SAVED ON UNIT   52 AT END OF TIME STEP   92, STRESS PERIOD    2
1
  VOLUMETRIC BUDGET FOR ENTIRE MODEL AT END OF TIME STEP   92, STRESS PERIOD   2
  ------------------------------------------------------------------------------

     CUMULATIVE VOLUMES      L**3       RATES FOR THIS TIME STEP      L**3/T
     ------------------                 ------------------------

           IN:                                      IN:
           ---                                      ---
             STORAGE =       24994.8477               STORAGE =       6.2904E-02
       CONSTANT HEAD =           0.0000         CONSTANT HEAD =           0.0000
               WELLS =           0.0000                 WELLS =           0.0000
     HEAD DEP BOUNDS =       43579.1562       HEAD DEP BOUNDS =         554.3841

            TOTAL IN =       68574.0000              TOTAL IN =         554.4470

          OUT:                                     OUT:
          ----                                     ----
             STORAGE =           0.0000               STORAGE =           0.0000
       CONSTANT HEAD =           0.0000         CONSTANT HEAD =           0.0000
               WELLS =           0.0000                 WELLS =           0.0000
     HEAD DEP BOUNDS =       68574.2500       HEAD DEP BOUNDS =         554.4577

           TOTAL OUT =       68574.2500             TOTAL OUT =         554.4577

            IN - OUT =          -0.2500              IN - OUT =      -1.0681E-02

 PERCENT DISCREPANCY =          -0.00     PERCENT DISCREPANCY =          -0.00






         TIME SUMMARY AT END OF TIME STEP   92 IN STRESS PERIOD    2
                    SECONDS     MINUTES      HOURS       DAYS        YEARS
                    -----------------------------------------------------------
   TIME STEP LENGTH  86400.      1440.0      24.000      1.0000     2.73785E-03
 STRESS PERIOD TIME 7.94880E+06 1.32480E+05  2208.0      92.000     0.25188    
         TOTAL TIME 8.03520E+06 1.33920E+05  2232.0      93.000     0.25462    
1

 SOLVING FOR HEAD 

 OUTPUT CONTROL FOR STRESS PERIOD    2   TIME STEP   93
    SAVE HEAD FOR ALL LAYERS
    SAVE DRAWDOWN FOR ALL LAYERS
    SAVE BUDGET
    PRINT HEAD FOR ALL LAYERS
    PRINT BUDGET
 UBDSV1 SAVING "         STORAGE" ON UNIT  53 AT TIME STEP 93, STRESS PERIOD   2
 UBDSV2 SAVING "   CONSTANT HEAD" ON UNIT  53 AT TIME STEP 93, STRESS PERIOD   2
 UBDSV1 SAVING "FLOW RIGHT FACE " ON UNIT  53 AT TIME STEP 93, STRESS PERIOD   2
 UBDSV1 SAVING "FLOW FRONT FACE " ON UNIT  53 AT TIME STEP 93, STRESS PERIOD   2
1
              HEAD IN LAYER   1 AT END OF TIME STEP  93 IN STRESS PERIOD    2
  ---------------------------------------------------------------------------

            1           2           3           4           5           6           7           8           9          10
 ........................................................................................................................
   1    9.991       8.882       7.773       6.664       5.556       4.447       3.338       2.229       1.120      1.1089E-02
   2    9.991       8.882       7.773       6.664       5.556       4.447       3.338       2.229       1.120      1.1089E-02
   3    9.991       8.882       7.773       6.664       5.556       4.447       3.338       2.229       1.120      1.1089E-02
   4    9.991       8.882       7.773       6.664       5.556       4.447       3.338       2.229       1.120      1.1089E-02
   5    9.991       8.882       7.773       6.664       5.556       4.447       3.338       2.229       1.120      1.1089E-02
   6    9.991       8.882       7.773       6.664       5.556       4.447       3.338       2.229       1.120      1.1089E-02
   7    9.991       8.882       7.773       6.664       5.556       4.447       3.338       2.229       1.120      1.1089E-02
   8    9.991       8.882       7.773       6.664       5.556       4.447       3.338       2.229       1.120      1.1089E-02
   9    9.991       8.882       7.773       6.664       5.556       4.447       3.338       2.229       1.120      1.1089E-02
  10    9.991       8.882       7.773       6.664       5.556       4.447       3.338       2.229       1.120      1.1089E-02

 HEAD WILL BE SAVED ON UNIT   51 AT END OF TIME STEP   93, STRESS PERIOD    2

 DRAWDOWN WILL BE SAVED ON UNIT   52 AT END OF TIME STEP   93, STRESS PERIOD    2
1
  VOLUMETRIC BUDGET FOR ENTIRE MODEL AT END OF TIME STEP   93, STRESS PERIOD   2
  ------------------------------------------------------------------------------

     CUMULATIVE VOLUMES      L**3       RATES FOR THIS TIME STEP      L**3/T
     ------------------                 ------------------------

           IN:                                      IN:
           ---                                      ---
             STORAGE =       24994.9043               STORAGE =       5.6224E-02
       CONSTANT HEAD =           0.0000         CONSTANT HEAD =           0.0000
               WELLS =           0.0000                 WELLS =           0.0000
     HEAD DEP BOUNDS =       44133.5430       HEAD DEP BOUNDS =         554.3874

            TOTAL IN =       69128.4453              TOTAL IN =         554.4436

          OUT:                                     OUT:
          ----                                     ----
             STORAGE =           0.0000               STORAGE =           0.0000
       CONSTANT HEAD =           0.0000         CONSTANT HEAD =           0.0000
               WELLS =           0.0000                 WELLS =           0.0000
     HEAD DEP BOUNDS =       69128.7031       HEAD DEP BOUNDS =         554.4543

           TOTAL OUT =       69128.7031             TOTAL OUT =         554.4543

            IN - OUT =          -0.2578              IN - OUT =      -1.0742E-02

 PERCENT DISCREPANCY =          -0.00     PERCENT DISCREPANCY =          -0.00






         TIME SUMMARY AT END OF TIME STEP   93 IN STRESS PERIOD    2
                    SECONDS     MINUTES      HOURS       DAYS        YEARS
                    -----------------------------------------------------------
   TIME STEP LENGTH  86400.      1440.0      24.000      1.0000     2.73785E-03
 STRESS PERIOD TIME 8.03520E+06 1.33920E+05  2232.0      93.000     0.25462    
         TOTAL TIME 8.12160E+06 1.35360E+05  2256.0      94.000     0.25736    
1

 SOLVING FOR HEAD 

 OUTPUT CONTROL FOR STRESS PERIOD    2   TIME STEP   94
    SAVE HEAD FOR ALL LAYERS
    SAVE DRAWDOWN FOR ALL LAYERS
    SAVE BUDGET
    PRINT HEAD FOR ALL LAYERS
    PRINT BUDGET
 UBDSV1 SAVING "         STORAGE" ON UNIT  53 AT TIME STEP 94, STRESS PERIOD   2
 UBDSV2 SAVING "   CONSTANT HEAD" ON UNIT  53 AT TIME STEP 94, STRESS PERIOD   2
 UBDSV1 SAVING "FLOW RIGHT FACE " ON UNIT  53 AT TIME STEP 94, STRESS PERIOD   2
 UBDSV1 SAVING "FLOW FRONT FACE " ON UNIT  53 AT TIME STEP 94, STRESS PERIOD   2
1
              HEAD IN LAYER   1 AT END OF TIME STEP  94 IN STRESS PERIOD    2
  ---------------------------------------------------------------------------

            1           2           3           4           5           6           7           8           9          10
 ........................................................................................................................
   1    9.991       8.882       7.773       6.664       5.555       4.447       3.338       2.229       1.120      1.1089E-02
   2    9.991       8.882       7.773       6.664       5.555       4.447       3.338       2.229       1.120      1.1089E-02
   3    9.991       8.882       7.773       6.664       5.555       4.447       3.338       2.229       1.120      1.1089E-02
   4    9.991       8.882       7.773       6.664       5.555       4.447       3.338       2.229       1.120      1.1089E-02
   5    9.991       8.882       7.773       6.664       5.555       4.447       3.338       2.229       1.120      1.1089E-02
   6    9.991       8.882       7.773       6.664       5.555       4.447       3.338       2.229       1.120      1.1089E-02
   7    9.991       8.882       7.773       6.664       5.555       4.447       3.338       2.229       1.120      1.1089E-02
   8    9.991       8.882       7.773       6.664       5.555       4.447       3.338       2.229       1.120      1.1089E-02
   9    9.991       8.882       7.773       6.664       5.555       4.447       3.338       2.229       1.120      1.1089E-02
  10    9.991       8.882       7.773       6.664       5.555       4.447       3.338       2.229       1.120      1.1089E-02

 HEAD WILL BE SAVED ON UNIT   51 AT END OF TIME STEP   94, STRESS PERIOD    2

 DRAWDOWN WILL BE SAVED ON UNIT   52 AT END OF TIME STEP   94, STRESS PERIOD    2
1
  VOLUMETRIC BUDGET FOR ENTIRE MODEL AT END OF TIME STEP   94, STRESS PERIOD   2
  ------------------------------------------------------------------------------

     CUMULATIVE VOLUMES      L**3       RATES FOR THIS TIME STEP      L**3/T
     ------------------                 ------------------------

           IN:                                      IN:
           ---                                      ---
             STORAGE =       24994.9551               STORAGE =       5.0803E-02
       CONSTANT HEAD =           0.0000         CONSTANT HEAD =           0.0000
               WELLS =           0.0000                 WELLS =           0.0000
     HEAD DEP BOUNDS =       44687.9336       HEAD DEP BOUNDS =         554.3904

            TOTAL IN =       69682.8906              TOTAL IN =         554.4412

          OUT:                                     OUT:
          ----                                     ----
             STORAGE =           0.0000               STORAGE =           0.0000
       CONSTANT HEAD =           0.0000         CONSTANT HEAD =           0.0000
               WELLS =           0.0000                 WELLS =           0.0000
     HEAD DEP BOUNDS =       69683.1562       HEAD DEP BOUNDS =         554.4514

           TOTAL OUT =       69683.1562             TOTAL OUT =         554.4514

            IN - OUT =          -0.2656              IN - OUT =      -1.0193E-02

 PERCENT DISCREPANCY =          -0.00     PERCENT DISCREPANCY =          -0.00






         TIME SUMMARY AT END OF TIME STEP   94 IN STRESS PERIOD    2
                    SECONDS     MINUTES      HOURS       DAYS        YEARS
                    -----------------------------------------------------------
   TIME STEP LENGTH  86400.      1440.0      24.000      1.0000     2.73785E-03
 STRESS PERIOD TIME 8.12160E+06 1.35360E+05  2256.0      94.000     0.25736    
         TOTAL TIME 8.20800E+06 1.36800E+05  2280.0      95.000     0.26010    
1

 SOLVING FOR HEAD 

 OUTPUT CONTROL FOR STRESS PERIOD    2   TIME STEP   95
    SAVE HEAD FOR ALL LAYERS
    SAVE DRAWDOWN FOR ALL LAYERS
    SAVE BUDGET
    PRINT HEAD FOR ALL LAYERS
    PRINT BUDGET
 UBDSV1 SAVING "         STORAGE" ON UNIT  53 AT TIME STEP 95, STRESS PERIOD   2
 UBDSV2 SAVING "   CONSTANT HEAD" ON UNIT  53 AT TIME STEP 95, STRESS PERIOD   2
 UBDSV1 SAVING "FLOW RIGHT FACE " ON UNIT  53 AT TIME STEP 95, STRESS PERIOD   2
 UBDSV1 SAVING "FLOW FRONT FACE " ON UNIT  53 AT TIME STEP 95, STRESS PERIOD   2
1
              HEAD IN LAYER   1 AT END OF TIME STEP  95 IN STRESS PERIOD    2
  ---------------------------------------------------------------------------

            1           2           3           4           5           6           7           8           9          10
 ........................................................................................................................
   1    9.991       8.882       7.773       6.664       5.555       4.447       3.338       2.229       1.120      1.1089E-02
   2    9.991       8.882       7.773       6.664       5.555       4.447       3.338       2.229       1.120      1.1089E-02
   3    9.991       8.882       7.773       6.664       5.555       4.447       3.338       2.229       1.120      1.1089E-02
   4    9.991       8.882       7.773       6.664       5.555       4.447       3.338       2.229       1.120      1.1089E-02
   5    9.991       8.882       7.773       6.664       5.555       4.447       3.338       2.229       1.120      1.1089E-02
   6    9.991       8.882       7.773       6.664       5.555       4.447       3.338       2.229       1.120      1.1089E-02
   7    9.991       8.882       7.773       6.664       5.555       4.447       3.338       2.229       1.120      1.1089E-02
   8    9.991       8.882       7.773       6.664       5.555       4.447       3.338       2.229       1.120      1.1089E-02
   9    9.991       8.882       7.773       6.664       5.555       4.447       3.338       2.229       1.120      1.1089E-02
  10    9.991       8.882       7.773       6.664       5.555       4.447       3.338       2.229       1.120      1.1089E-02

 HEAD WILL BE SAVED ON UNIT   51 AT END OF TIME STEP   95, STRESS PERIOD    2

 DRAWDOWN WILL BE SAVED ON UNIT   52 AT END OF TIME STEP   95, STRESS PERIOD    2
1
  VOLUMETRIC BUDGET FOR ENTIRE MODEL AT END OF TIME STEP   95, STRESS PERIOD   2
  ------------------------------------------------------------------------------

     CUMULATIVE VOLUMES      L**3       RATES FOR THIS TIME STEP      L**3/T
     ------------------                 ------------------------

           IN:                                      IN:
           ---                                      ---
             STORAGE =       24995.0000               STORAGE =       4.5269E-02
       CONSTANT HEAD =           0.0000         CONSTANT HEAD =           0.0000
               WELLS =           0.0000                 WELLS =           0.0000
     HEAD DEP BOUNDS =       45242.3281       HEAD DEP BOUNDS =         554.3932

            TOTAL IN =       70237.3281              TOTAL IN =         554.4385

          OUT:                                     OUT:
          ----                                     ----
             STORAGE =           0.0000               STORAGE =           0.0000
       CONSTANT HEAD =           0.0000         CONSTANT HEAD =           0.0000
               WELLS =           0.0000                 WELLS =           0.0000
     HEAD DEP BOUNDS =       70237.6016       HEAD DEP BOUNDS =         554.4487

           TOTAL OUT =       70237.6016             TOTAL OUT =         554.4487

            IN - OUT =          -0.2734              IN - OUT =      -1.0193E-02

 PERCENT DISCREPANCY =          -0.00     PERCENT DISCREPANCY =          -0.00






         TIME SUMMARY AT END OF TIME STEP   95 IN STRESS PERIOD    2
                    SECONDS     MINUTES      HOURS       DAYS        YEARS
                    -----------------------------------------------------------
   TIME STEP LENGTH  86400.      1440.0      24.000      1.0000     2.73785E-03
 STRESS PERIOD TIME 8.20800E+06 1.36800E+05  2280.0      95.000     0.26010    
         TOTAL TIME 8.29440E+06 1.38240E+05  2304.0      96.000     0.26283    
1

 SOLVING FOR HEAD 

 OUTPUT CONTROL FOR STRESS PERIOD    2   TIME STEP   96
    SAVE HEAD FOR ALL LAYERS
    SAVE DRAWDOWN FOR ALL LAYERS
    SAVE BUDGET
    PRINT HEAD FOR ALL LAYERS
    PRINT BUDGET
 UBDSV1 SAVING "         STORAGE" ON UNIT  53 AT TIME STEP 96, STRESS PERIOD   2
 UBDSV2 SAVING "   CONSTANT HEAD" ON UNIT  53 AT TIME STEP 96, STRESS PERIOD   2
 UBDSV1 SAVING "FLOW RIGHT FACE " ON UNIT  53 AT TIME STEP 96, STRESS PERIOD   2
 UBDSV1 SAVING "FLOW FRONT FACE " ON UNIT  53 AT TIME STEP 96, STRESS PERIOD   2
1
              HEAD IN LAYER   1 AT END OF TIME STEP  96 IN STRESS PERIOD    2
  ---------------------------------------------------------------------------

            1           2           3           4           5           6           7           8           9          10
 ........................................................................................................................
   1    9.991       8.882       7.773       6.664       5.555       4.447       3.338       2.229       1.120      1.1089E-02
   2    9.991       8.882       7.773       6.664       5.555       4.447       3.338       2.229       1.120      1.1089E-02
   3    9.991       8.882       7.773       6.664       5.555       4.447       3.338       2.229       1.120      1.1089E-02
   4    9.991       8.882       7.773       6.664       5.555       4.447       3.338       2.229       1.120      1.1089E-02
   5    9.991       8.882       7.773       6.664       5.555       4.447       3.338       2.229       1.120      1.1089E-02
   6    9.991       8.882       7.773       6.664       5.555       4.447       3.338       2.229       1.120      1.1089E-02
   7    9.991       8.882       7.773       6.664       5.555       4.447       3.338       2.229       1.120      1.1089E-02
   8    9.991       8.882       7.773       6.664       5.555       4.447       3.338       2.229       1.120      1.1089E-02
   9    9.991       8.882       7.773       6.664       5.555       4.447       3.338       2.229       1.120      1.1089E-02
  10    9.991       8.882       7.773       6.664       5.555       4.447       3.338       2.229       1.120      1.1089E-02

 HEAD WILL BE SAVED ON UNIT   51 AT END OF TIME STEP   96, STRESS PERIOD    2

 DRAWDOWN WILL BE SAVED ON UNIT   52 AT END OF TIME STEP   96, STRESS PERIOD    2
1
  VOLUMETRIC BUDGET FOR ENTIRE MODEL AT END OF TIME STEP   96, STRESS PERIOD   2
  ------------------------------------------------------------------------------

     CUMULATIVE VOLUMES      L**3       RATES FOR THIS TIME STEP      L**3/T
     ------------------                 ------------------------

           IN:                                      IN:
           ---                                      ---
             STORAGE =       24995.0410               STORAGE =       4.0231E-02
       CONSTANT HEAD =           0.0000         CONSTANT HEAD =           0.0000
               WELLS =           0.0000                 WELLS =           0.0000
     HEAD DEP BOUNDS =       45796.7227       HEAD DEP BOUNDS =         554.3956

            TOTAL IN =       70791.7656              TOTAL IN =         554.4358

          OUT:                                     OUT:
          ----                                     ----
             STORAGE =           0.0000               STORAGE =           0.0000
       CONSTANT HEAD =           0.0000         CONSTANT HEAD =           0.0000
               WELLS =           0.0000                 WELLS =           0.0000
     HEAD DEP BOUNDS =       70792.0469       HEAD DEP BOUNDS =         554.4462

           TOTAL OUT =       70792.0469             TOTAL OUT =         554.4462

            IN - OUT =          -0.2812              IN - OUT =      -1.0437E-02

 PERCENT DISCREPANCY =          -0.00     PERCENT DISCREPANCY =          -0.00






         TIME SUMMARY AT END OF TIME STEP   96 IN STRESS PERIOD    2
                    SECONDS     MINUTES      HOURS       DAYS        YEARS
                    -----------------------------------------------------------
   TIME STEP LENGTH  86400.      1440.0      24.000      1.0000     2.73785E-03
 STRESS PERIOD TIME 8.29440E+06 1.38240E+05  2304.0      96.000     0.26283    
         TOTAL TIME 8.38080E+06 1.39680E+05  2328.0      97.000     0.26557    
1

 SOLVING FOR HEAD 

 OUTPUT CONTROL FOR STRESS PERIOD    2   TIME STEP   97
    SAVE HEAD FOR ALL LAYERS
    SAVE DRAWDOWN FOR ALL LAYERS
    SAVE BUDGET
    PRINT HEAD FOR ALL LAYERS
    PRINT BUDGET
 UBDSV1 SAVING "         STORAGE" ON UNIT  53 AT TIME STEP 97, STRESS PERIOD   2
 UBDSV2 SAVING "   CONSTANT HEAD" ON UNIT  53 AT TIME STEP 97, STRESS PERIOD   2
 UBDSV1 SAVING "FLOW RIGHT FACE " ON UNIT  53 AT TIME STEP 97, STRESS PERIOD   2
 UBDSV1 SAVING "FLOW FRONT FACE " ON UNIT  53 AT TIME STEP 97, STRESS PERIOD   2
1
              HEAD IN LAYER   1 AT END OF TIME STEP  97 IN STRESS PERIOD    2
  ---------------------------------------------------------------------------

            1           2           3           4           5           6           7           8           9          10
 ........................................................................................................................
   1    9.991       8.882       7.773       6.664       5.555       4.447       3.338       2.229       1.120      1.1089E-02
   2    9.991       8.882       7.773       6.664       5.555       4.447       3.338       2.229       1.120      1.1089E-02
   3    9.991       8.882       7.773       6.664       5.555       4.447       3.338       2.229       1.120      1.1089E-02
   4    9.991       8.882       7.773       6.664       5.555       4.447       3.338       2.229       1.120      1.1089E-02
   5    9.991       8.882       7.773       6.664       5.555       4.447       3.338       2.229       1.120      1.1089E-02
   6    9.991       8.882       7.773       6.664       5.555       4.447       3.338       2.229       1.120      1.1089E-02
   7    9.991       8.882       7.773       6.664       5.555       4.447       3.338       2.229       1.120      1.1089E-02
   8    9.991       8.882       7.773       6.664       5.555       4.447       3.338       2.229       1.120      1.1089E-02
   9    9.991       8.882       7.773       6.664       5.555       4.447       3.338       2.229       1.120      1.1089E-02
  10    9.991       8.882       7.773       6.664       5.555       4.447       3.338       2.229       1.120      1.1089E-02

 HEAD WILL BE SAVED ON UNIT   51 AT END OF TIME STEP   97, STRESS PERIOD    2

 DRAWDOWN WILL BE SAVED ON UNIT   52 AT END OF TIME STEP   97, STRESS PERIOD    2
1
  VOLUMETRIC BUDGET FOR ENTIRE MODEL AT END OF TIME STEP   97, STRESS PERIOD   2
  ------------------------------------------------------------------------------

     CUMULATIVE VOLUMES      L**3       RATES FOR THIS TIME STEP      L**3/T
     ------------------                 ------------------------

           IN:                                      IN:
           ---                                      ---
             STORAGE =       24995.0762               STORAGE =       3.5155E-02
       CONSTANT HEAD =           0.0000         CONSTANT HEAD =           0.0000
               WELLS =           0.0000                 WELLS =           0.0000
     HEAD DEP BOUNDS =       46351.1211       HEAD DEP BOUNDS =         554.3978

            TOTAL IN =       71346.1953              TOTAL IN =         554.4329

          OUT:                                     OUT:
          ----                                     ----
             STORAGE =           0.0000               STORAGE =           0.0000
       CONSTANT HEAD =           0.0000         CONSTANT HEAD =           0.0000
               WELLS =           0.0000                 WELLS =           0.0000
     HEAD DEP BOUNDS =       71346.4922       HEAD DEP BOUNDS =         554.4441

           TOTAL OUT =       71346.4922             TOTAL OUT =         554.4441

            IN - OUT =          -0.2969              IN - OUT =      -1.1169E-02

 PERCENT DISCREPANCY =          -0.00     PERCENT DISCREPANCY =          -0.00






         TIME SUMMARY AT END OF TIME STEP   97 IN STRESS PERIOD    2
                    SECONDS     MINUTES      HOURS       DAYS        YEARS
                    -----------------------------------------------------------
   TIME STEP LENGTH  86400.      1440.0      24.000      1.0000     2.73785E-03
 STRESS PERIOD TIME 8.38080E+06 1.39680E+05  2328.0      97.000     0.26557    
         TOTAL TIME 8.46720E+06 1.41120E+05  2352.0      98.000     0.26831    
1

 SOLVING FOR HEAD 

 OUTPUT CONTROL FOR STRESS PERIOD    2   TIME STEP   98
    SAVE HEAD FOR ALL LAYERS
    SAVE DRAWDOWN FOR ALL LAYERS
    SAVE BUDGET
    PRINT HEAD FOR ALL LAYERS
    PRINT BUDGET
 UBDSV1 SAVING "         STORAGE" ON UNIT  53 AT TIME STEP 98, STRESS PERIOD   2
 UBDSV2 SAVING "   CONSTANT HEAD" ON UNIT  53 AT TIME STEP 98, STRESS PERIOD   2
 UBDSV1 SAVING "FLOW RIGHT FACE " ON UNIT  53 AT TIME STEP 98, STRESS PERIOD   2
 UBDSV1 SAVING "FLOW FRONT FACE " ON UNIT  53 AT TIME STEP 98, STRESS PERIOD   2
1
              HEAD IN LAYER   1 AT END OF TIME STEP  98 IN STRESS PERIOD    2
  ---------------------------------------------------------------------------

            1           2           3           4           5           6           7           8           9          10
 ........................................................................................................................
   1    9.991       8.882       7.773       6.664       5.555       4.447       3.338       2.229       1.120      1.1089E-02
   2    9.991       8.882       7.773       6.664       5.555       4.447       3.338       2.229       1.120      1.1089E-02
   3    9.991       8.882       7.773       6.664       5.555       4.447       3.338       2.229       1.120      1.1089E-02
   4    9.991       8.882       7.773       6.664       5.555       4.447       3.338       2.229       1.120      1.1089E-02
   5    9.991       8.882       7.773       6.664       5.555       4.447       3.338       2.229       1.120      1.1089E-02
   6    9.991       8.882       7.773       6.664       5.555       4.447       3.338       2.229       1.120      1.1089E-02
   7    9.991       8.882       7.773       6.664       5.555       4.447       3.338       2.229       1.120      1.1089E-02
   8    9.991       8.882       7.773       6.664       5.555       4.447       3.338       2.229       1.120      1.1089E-02
   9    9.991       8.882       7.773       6.664       5.555       4.447       3.338       2.229       1.120      1.1089E-02
  10    9.991       8.882       7.773       6.664       5.555       4.447       3.338       2.229       1.120      1.1089E-02

 HEAD WILL BE SAVED ON UNIT   51 AT END OF TIME STEP   98, STRESS PERIOD    2

 DRAWDOWN WILL BE SAVED ON UNIT   52 AT END OF TIME STEP   98, STRESS PERIOD    2
1
  VOLUMETRIC BUDGET FOR ENTIRE MODEL AT END OF TIME STEP   98, STRESS PERIOD   2
  ------------------------------------------------------------------------------

     CUMULATIVE VOLUMES      L**3       RATES FOR THIS TIME STEP      L**3/T
     ------------------                 ------------------------

           IN:                                      IN:
           ---                                      ---
             STORAGE =       24995.1094               STORAGE =       3.2330E-02
       CONSTANT HEAD =           0.0000         CONSTANT HEAD =           0.0000
               WELLS =           0.0000                 WELLS =           0.0000
     HEAD DEP BOUNDS =       46905.5195       HEAD DEP BOUNDS =         554.3995

            TOTAL IN =       71900.6250              TOTAL IN =         554.4318

          OUT:                                     OUT:
          ----                                     ----
             STORAGE =           0.0000               STORAGE =           0.0000
       CONSTANT HEAD =           0.0000         CONSTANT HEAD =           0.0000
               WELLS =           0.0000                 WELLS =           0.0000
     HEAD DEP BOUNDS =       71900.9375       HEAD DEP BOUNDS =         554.4421

           TOTAL OUT =       71900.9375             TOTAL OUT =         554.4421

            IN - OUT =          -0.3125              IN - OUT =      -1.0315E-02

 PERCENT DISCREPANCY =          -0.00     PERCENT DISCREPANCY =          -0.00






         TIME SUMMARY AT END OF TIME STEP   98 IN STRESS PERIOD    2
                    SECONDS     MINUTES      HOURS       DAYS        YEARS
                    -----------------------------------------------------------
   TIME STEP LENGTH  86400.      1440.0      24.000      1.0000     2.73785E-03
 STRESS PERIOD TIME 8.46720E+06 1.41120E+05  2352.0      98.000     0.26831    
         TOTAL TIME 8.55360E+06 1.42560E+05  2376.0      99.000     0.27105    
1

 SOLVING FOR HEAD 

 OUTPUT CONTROL FOR STRESS PERIOD    2   TIME STEP   99
    SAVE HEAD FOR ALL LAYERS
    SAVE DRAWDOWN FOR ALL LAYERS
    SAVE BUDGET
    PRINT HEAD FOR ALL LAYERS
    PRINT BUDGET
 UBDSV1 SAVING "         STORAGE" ON UNIT  53 AT TIME STEP 99, STRESS PERIOD   2
 UBDSV2 SAVING "   CONSTANT HEAD" ON UNIT  53 AT TIME STEP 99, STRESS PERIOD   2
 UBDSV1 SAVING "FLOW RIGHT FACE " ON UNIT  53 AT TIME STEP 99, STRESS PERIOD   2
 UBDSV1 SAVING "FLOW FRONT FACE " ON UNIT  53 AT TIME STEP 99, STRESS PERIOD   2
1
              HEAD IN LAYER   1 AT END OF TIME STEP  99 IN STRESS PERIOD    2
  ---------------------------------------------------------------------------

            1           2           3           4           5           6           7           8           9          10
 ........................................................................................................................
   1    9.991       8.882       7.773       6.664       5.555       4.447       3.338       2.229       1.120      1.1089E-02
   2    9.991       8.882       7.773       6.664       5.555       4.447       3.338       2.229       1.120      1.1089E-02
   3    9.991       8.882       7.773       6.664       5.555       4.447       3.338       2.229       1.120      1.1089E-02
   4    9.991       8.882       7.773       6.664       5.555       4.447       3.338       2.229       1.120      1.1089E-02
   5    9.991       8.882       7.773       6.664       5.555       4.447       3.338       2.229       1.120      1.1089E-02
   6    9.991       8.882       7.773       6.664       5.555       4.447       3.338       2.229       1.120      1.1089E-02
   7    9.991       8.882       7.773       6.664       5.555       4.447       3.338       2.229       1.120      1.1089E-02
   8    9.991       8.882       7.773       6.664       5.555       4.447       3.338       2.229       1.120      1.1089E-02
   9    9.991       8.882       7.773       6.664       5.555       4.447       3.338       2.229       1.120      1.1089E-02
  10    9.991       8.882       7.773       6.664       5.555       4.447       3.338       2.229       1.120      1.1089E-02

 HEAD WILL BE SAVED ON UNIT   51 AT END OF TIME STEP   99, STRESS PERIOD    2

 DRAWDOWN WILL BE SAVED ON UNIT   52 AT END OF TIME STEP   99, STRESS PERIOD    2
1
  VOLUMETRIC BUDGET FOR ENTIRE MODEL AT END OF TIME STEP   99, STRESS PERIOD   2
  ------------------------------------------------------------------------------

     CUMULATIVE VOLUMES      L**3       RATES FOR THIS TIME STEP      L**3/T
     ------------------                 ------------------------

           IN:                                      IN:
           ---                                      ---
             STORAGE =       24995.1387               STORAGE =       2.8590E-02
       CONSTANT HEAD =           0.0000         CONSTANT HEAD =           0.0000
               WELLS =           0.0000                 WELLS =           0.0000
     HEAD DEP BOUNDS =       47459.9219       HEAD DEP BOUNDS =         554.4013

            TOTAL IN =       72455.0625              TOTAL IN =         554.4299

          OUT:                                     OUT:
          ----                                     ----
             STORAGE =           0.0000               STORAGE =           0.0000
       CONSTANT HEAD =           0.0000         CONSTANT HEAD =           0.0000
               WELLS =           0.0000                 WELLS =           0.0000
     HEAD DEP BOUNDS =       72455.3750       HEAD DEP BOUNDS =         554.4404

           TOTAL OUT =       72455.3750             TOTAL OUT =         554.4404

            IN - OUT =          -0.3125              IN - OUT =      -1.0559E-02

 PERCENT DISCREPANCY =          -0.00     PERCENT DISCREPANCY =          -0.00






         TIME SUMMARY AT END OF TIME STEP   99 IN STRESS PERIOD    2
                    SECONDS     MINUTES      HOURS       DAYS        YEARS
                    -----------------------------------------------------------
   TIME STEP LENGTH  86400.      1440.0      24.000      1.0000     2.73785E-03
 STRESS PERIOD TIME 8.55360E+06 1.42560E+05  2376.0      99.000     0.27105    
         TOTAL TIME 8.64000E+06 1.44000E+05  2400.0      100.00     0.27379    
1

 SOLVING FOR HEAD 

 OUTPUT CONTROL FOR STRESS PERIOD    2   TIME STEP  100
    SAVE HEAD FOR ALL LAYERS
    SAVE DRAWDOWN FOR ALL LAYERS
    SAVE BUDGET
    PRINT HEAD FOR ALL LAYERS
    PRINT BUDGET
 UBDSV1 SAVING "         STORAGE" ON UNIT  53 AT TIME STEP100, STRESS PERIOD   2
 UBDSV2 SAVING "   CONSTANT HEAD" ON UNIT  53 AT TIME STEP100, STRESS PERIOD   2
 UBDSV1 SAVING "FLOW RIGHT FACE " ON UNIT  53 AT TIME STEP100, STRESS PERIOD   2
 UBDSV1 SAVING "FLOW FRONT FACE " ON UNIT  53 AT TIME STEP100, STRESS PERIOD   2
1
              HEAD IN LAYER   1 AT END OF TIME STEP 100 IN STRESS PERIOD    2
  ---------------------------------------------------------------------------

            1           2           3           4           5           6           7           8           9          10
 ........................................................................................................................
   1    9.991       8.882       7.773       6.664       5.555       4.447       3.338       2.229       1.120      1.1089E-02
   2    9.991       8.882       7.773       6.664       5.555       4.447       3.338       2.229       1.120      1.1089E-02
   3    9.991       8.882       7.773       6.664       5.555       4.447       3.338       2.229       1.120      1.1089E-02
   4    9.991       8.882       7.773       6.664       5.555       4.447       3.338       2.229       1.120      1.1089E-02
   5    9.991       8.882       7.773       6.664       5.555       4.447       3.338       2.229       1.120      1.1089E-02
   6    9.991       8.882       7.773       6.664       5.555       4.447       3.338       2.229       1.120      1.1089E-02
   7    9.991       8.882       7.773       6.664       5.555       4.447       3.338       2.229       1.120      1.1089E-02
   8    9.991       8.882       7.773       6.664       5.555       4.447       3.338       2.229       1.120      1.1089E-02
   9    9.991       8.882       7.773       6.664       5.555       4.447       3.338       2.229       1.120      1.1089E-02
  10    9.991       8.882       7.773       6.664       5.555       4.447       3.338       2.229       1.120      1.1089E-02

 HEAD WILL BE SAVED ON UNIT   51 AT END OF TIME STEP  100, STRESS PERIOD    2

 DRAWDOWN WILL BE SAVED ON UNIT   52 AT END OF TIME STEP  100, STRESS PERIOD    2
1
  VOLUMETRIC BUDGET FOR ENTIRE MODEL AT END OF TIME STEP  100, STRESS PERIOD   2
  ------------------------------------------------------------------------------

     CUMULATIVE VOLUMES      L**3       RATES FOR THIS TIME STEP      L**3/T
     ------------------                 ------------------------

           IN:                                      IN:
           ---                                      ---
             STORAGE =       24995.1641               STORAGE =       2.5688E-02
       CONSTANT HEAD =           0.0000         CONSTANT HEAD =           0.0000
               WELLS =           0.0000                 WELLS =           0.0000
     HEAD DEP BOUNDS =       48014.3242       HEAD DEP BOUNDS =         554.4028

            TOTAL IN =       73009.4844              TOTAL IN =         554.4285

          OUT:                                     OUT:
          ----                                     ----
             STORAGE =           0.0000               STORAGE =           0.0000
       CONSTANT HEAD =           0.0000         CONSTANT HEAD =           0.0000
               WELLS =           0.0000                 WELLS =           0.0000
     HEAD DEP BOUNDS =       73009.8125       HEAD DEP BOUNDS =         554.4389

           TOTAL OUT =       73009.8125             TOTAL OUT =         554.4389

            IN - OUT =          -0.3281              IN - OUT =      -1.0376E-02

 PERCENT DISCREPANCY =          -0.00     PERCENT DISCREPANCY =          -0.00






         TIME SUMMARY AT END OF TIME STEP  100 IN STRESS PERIOD    2
                    SECONDS     MINUTES      HOURS       DAYS        YEARS
                    -----------------------------------------------------------
   TIME STEP LENGTH  86400.      1440.0      24.000      1.0000     2.73785E-03
 STRESS PERIOD TIME 8.64000E+06 1.44000E+05  2400.0      100.00     0.27379    
         TOTAL TIME 8.72640E+06 1.45440E+05  2424.0      101.00     0.27652    
1
1
                            STRESS PERIOD NO.    3, LENGTH =   100.0000    
                            -----------------------------------------------

                              NUMBER OF TIME STEPS =   100

                               MULTIPLIER FOR DELT =     1.000

                            INITIAL TIME STEP SIZE =   1.000000    

 WELL NO.  LAYER   ROW   COL   STRESS RATE         
 --------------------------------------------------
      1      1      5      5      -500.0    

      1 WELL 

 REUSING NON-PARAMETER GHB CELLS FROM LAST STRESS PERIOD

     20 GHB CELLS

 SOLVING FOR HEAD 

 OUTPUT CONTROL FOR STRESS PERIOD    3   TIME STEP    1
    SAVE HEAD FOR ALL LAYERS
    SAVE DRAWDOWN FOR ALL LAYERS
    SAVE BUDGET
    PRINT HEAD FOR ALL LAYERS
    PRINT BUDGET
 UBDSV1 SAVING "         STORAGE" ON UNIT  53 AT TIME STEP  1, STRESS PERIOD   3
 UBDSV2 SAVING "   CONSTANT HEAD" ON UNIT  53 AT TIME STEP  1, STRESS PERIOD   3
 UBDSV1 SAVING "FLOW RIGHT FACE " ON UNIT  53 AT TIME STEP  1, STRESS PERIOD   3
 UBDSV1 SAVING "FLOW FRONT FACE " ON UNIT  53 AT TIME STEP  1, STRESS PERIOD   3
1
              HEAD IN LAYER   1 AT END OF TIME STEP   1 IN STRESS PERIOD    3
  ---------------------------------------------------------------------------

            1           2           3           4           5           6           7           8           9          10
 ........................................................................................................................
   1    9.991       8.876       7.760       6.642       5.528       4.424       3.323       2.221       1.117      1.1057E-02
   2    9.991       8.871       7.747       6.617       5.491       4.399       3.311       2.216       1.115      1.1039E-02
   3    9.991       8.860       7.714       6.539       5.357       4.321       3.277       2.203       1.111      1.1000E-02
   4    9.990       8.842       7.650       6.345       4.880       4.126       3.213       2.184       1.105      1.0947E-02
   5    9.990       8.827       7.578       5.989       3.015       3.771       3.141       2.168       1.102      1.0913E-02
   6    9.990       8.842       7.650       6.345       4.880       4.127       3.213       2.184       1.106      1.0948E-02
   7    9.991       8.860       7.714       6.540       5.358       4.322       3.278       2.204       1.111      1.1001E-02
   8    9.991       8.872       7.748       6.619       5.493       4.401       3.312       2.217       1.115      1.1042E-02
   9    9.991       8.877       7.763       6.647       5.534       4.429       3.327       2.223       1.118      1.1065E-02
  10    9.991       8.879       7.768       6.656       5.546       4.439       3.332       2.226       1.119      1.1075E-02

 HEAD WILL BE SAVED ON UNIT   51 AT END OF TIME STEP    1, STRESS PERIOD    3

 DRAWDOWN WILL BE SAVED ON UNIT   52 AT END OF TIME STEP    1, STRESS PERIOD    3
1
  VOLUMETRIC BUDGET FOR ENTIRE MODEL AT END OF TIME STEP    1, STRESS PERIOD   3
  ------------------------------------------------------------------------------

     CUMULATIVE VOLUMES      L**3       RATES FOR THIS TIME STEP      L**3/T
     ------------------                 ------------------------

           IN:                                      IN:
           ---                                      ---
             STORAGE =       25480.6875               STORAGE =         485.5231
       CONSTANT HEAD =           0.0000         CONSTANT HEAD =           0.0000
               WELLS =           0.0000                 WELLS =           0.0000
     HEAD DEP BOUNDS =       48579.2305       HEAD DEP BOUNDS =         564.9050

            TOTAL IN =       74059.9219              TOTAL IN =        1050.4281

          OUT:                                     OUT:
          ----                                     ----
             STORAGE =           0.0000               STORAGE =           0.0000
       CONSTANT HEAD =           0.0000         CONSTANT HEAD =           0.0000
               WELLS =         500.0000                 WELLS =         500.0000
     HEAD DEP BOUNDS =       73560.2500       HEAD DEP BOUNDS =         550.4387

           TOTAL OUT =       74060.2500             TOTAL OUT =        1050.4387

            IN - OUT =          -0.3281              IN - OUT =      -1.0620E-02

 PERCENT DISCREPANCY =          -0.00     PERCENT DISCREPANCY =          -0.00






         TIME SUMMARY AT END OF TIME STEP    1 IN STRESS PERIOD    3
                    SECONDS     MINUTES      HOURS       DAYS        YEARS
                    -----------------------------------------------------------
   TIME STEP LENGTH  86400.      1440.0      24.000      1.0000     2.73785E-03
 STRESS PERIOD TIME  86400.      1440.0      24.000      1.0000     2.73785E-03
         TOTAL TIME 8.81280E+06 1.46880E+05  2448.0      102.00     0.27926    
1

 SOLVING FOR HEAD 

 OUTPUT CONTROL FOR STRESS PERIOD    3   TIME STEP    2
    SAVE HEAD FOR ALL LAYERS
    SAVE DRAWDOWN FOR ALL LAYERS
    SAVE BUDGET
    PRINT HEAD FOR ALL LAYERS
    PRINT BUDGET
 UBDSV1 SAVING "         STORAGE" ON UNIT  53 AT TIME STEP  2, STRESS PERIOD   3
 UBDSV2 SAVING "   CONSTANT HEAD" ON UNIT  53 AT TIME STEP  2, STRESS PERIOD   3
 UBDSV1 SAVING "FLOW RIGHT FACE " ON UNIT  53 AT TIME STEP  2, STRESS PERIOD   3
 UBDSV1 SAVING "FLOW FRONT FACE " ON UNIT  53 AT TIME STEP  2, STRESS PERIOD   3
1
              HEAD IN LAYER   1 AT END OF TIME STEP   2 IN STRESS PERIOD    3
  ---------------------------------------------------------------------------

            1           2           3           4           5           6           7           8           9          10
 ........................................................................................................................
   1    9.991       8.860       7.726       6.592       5.470       4.373       3.288       2.200       1.107      1.0964E-02
   2    9.990       8.846       7.693       6.531       5.387       4.312       3.254       2.184       1.102      1.0907E-02
   3    9.990       8.817       7.614       6.366       5.128       4.146       3.174       2.151       1.090      1.0794E-02
   4    9.990       8.775       7.483       6.016       4.386       3.795       3.040       2.104       1.076      1.0652E-02
   5    9.990       8.745       7.357       5.498       2.113       3.278       2.914       2.072       1.067      1.0570E-02
   6    9.990       8.776       7.483       6.016       4.387       3.796       3.041       2.105       1.076      1.0655E-02
   7    9.990       8.818       7.616       6.368       5.131       4.149       3.176       2.153       1.091      1.0800E-02
   8    9.990       8.849       7.698       6.538       5.394       4.319       3.259       2.188       1.103      1.0922E-02
   9    9.991       8.865       7.738       6.610       5.490       4.391       3.300       2.207       1.111      1.0997E-02
  10    9.991       8.872       7.753       6.635       5.522       4.417       3.316       2.216       1.114      1.1030E-02

 HEAD WILL BE SAVED ON UNIT   51 AT END OF TIME STEP    2, STRESS PERIOD    3

 DRAWDOWN WILL BE SAVED ON UNIT   52 AT END OF TIME STEP    2, STRESS PERIOD    3
1
  VOLUMETRIC BUDGET FOR ENTIRE MODEL AT END OF TIME STEP    2, STRESS PERIOD   3
  ------------------------------------------------------------------------------

     CUMULATIVE VOLUMES      L**3       RATES FOR THIS TIME STEP      L**3/T
     ------------------                 ------------------------

           IN:                                      IN:
           ---                                      ---
             STORAGE =       25938.3438               STORAGE =         457.6567
       CONSTANT HEAD =           0.0000         CONSTANT HEAD =           0.0000
               WELLS =           0.0000                 WELLS =           0.0000
     HEAD DEP BOUNDS =       49163.0312       HEAD DEP BOUNDS =         583.7988

            TOTAL IN =       75101.3750              TOTAL IN =        1041.4556

          OUT:                                     OUT:
          ----                                     ----
             STORAGE =           0.0000               STORAGE =           0.0000
       CONSTANT HEAD =           0.0000         CONSTANT HEAD =           0.0000
               WELLS =        1000.0000                 WELLS =         500.0000
     HEAD DEP BOUNDS =       74101.7031       HEAD DEP BOUNDS =         541.4562

           TOTAL OUT =       75101.7031             TOTAL OUT =        1041.4563

            IN - OUT =          -0.3281              IN - OUT =      -7.3242E-04

 PERCENT DISCREPANCY =          -0.00     PERCENT DISCREPANCY =          -0.00






         TIME SUMMARY AT END OF TIME STEP    2 IN STRESS PERIOD    3
                    SECONDS     MINUTES      HOURS       DAYS        YEARS
                    -----------------------------------------------------------
   TIME STEP LENGTH  86400.      1440.0      24.000      1.0000     2.73785E-03
 STRESS PERIOD TIME 1.72800E+05  2880.0      48.000      2.0000     5.47570E-03
         TOTAL TIME 8.89920E+06 1.48320E+05  2472.0      103.00     0.28200    
1

 SOLVING FOR HEAD 

 OUTPUT CONTROL FOR STRESS PERIOD    3   TIME STEP    3
    SAVE HEAD FOR ALL LAYERS
    SAVE DRAWDOWN FOR ALL LAYERS
    SAVE BUDGET
    PRINT HEAD FOR ALL LAYERS
    PRINT BUDGET
 UBDSV1 SAVING "         STORAGE" ON UNIT  53 AT TIME STEP  3, STRESS PERIOD   3
 UBDSV2 SAVING "   CONSTANT HEAD" ON UNIT  53 AT TIME STEP  3, STRESS PERIOD   3
 UBDSV1 SAVING "FLOW RIGHT FACE " ON UNIT  53 AT TIME STEP  3, STRESS PERIOD   3
 UBDSV1 SAVING "FLOW FRONT FACE " ON UNIT  53 AT TIME STEP  3, STRESS PERIOD   3
1
              HEAD IN LAYER   1 AT END OF TIME STEP   3 IN STRESS PERIOD    3
  ---------------------------------------------------------------------------

            1           2           3           4           5           6           7           8           9          10
 ........................................................................................................................
   1    9.990       8.834       7.676       6.521       5.389       4.300       3.232       2.165       1.091      1.0802E-02
   2    9.990       8.811       7.622       6.427       5.266       4.205       3.177       2.138       1.080      1.0696E-02
   3    9.990       8.765       7.503       6.193       4.921       3.970       3.055       2.083       1.060      1.0498E-02
   4    9.989       8.702       7.320       5.749       4.049       3.525       2.869       2.012       1.036      1.0264E-02
   5    9.989       8.661       7.165       5.166       1.664       2.941       2.712       1.966       1.023      1.0139E-02
   6    9.989       8.703       7.322       5.751       4.052       3.528       2.871       2.013       1.037      1.0271E-02
   7    9.990       8.767       7.508       6.200       4.929       3.977       3.060       2.087       1.062      1.0515E-02
   8    9.990       8.817       7.633       6.442       5.283       4.221       3.189       2.146       1.084      1.0733E-02
   9    9.990       8.847       7.701       6.557       5.430       4.337       3.259       2.182       1.099      1.0877E-02
  10    9.991       8.860       7.729       6.601       5.484       4.382       3.289       2.198       1.105      1.0944E-02

 HEAD WILL BE SAVED ON UNIT   51 AT END OF TIME STEP    3, STRESS PERIOD    3

 DRAWDOWN WILL BE SAVED ON UNIT   52 AT END OF TIME STEP    3, STRESS PERIOD    3
1
  VOLUMETRIC BUDGET FOR ENTIRE MODEL AT END OF TIME STEP    3, STRESS PERIOD   3
  ------------------------------------------------------------------------------

     CUMULATIVE VOLUMES      L**3       RATES FOR THIS TIME STEP      L**3/T
     ------------------                 ------------------------

           IN:                                      IN:
           ---                                      ---
             STORAGE =       26360.6270               STORAGE =         422.2829
       CONSTANT HEAD =           0.0000         CONSTANT HEAD =           0.0000
               WELLS =           0.0000                 WELLS =           0.0000
     HEAD DEP BOUNDS =       49769.4414       HEAD DEP BOUNDS =         606.4118

            TOTAL IN =       76130.0703              TOTAL IN =        1028.6947

          OUT:                                     OUT:
          ----                                     ----
             STORAGE =           0.0000               STORAGE =           0.0000
       CONSTANT HEAD =           0.0000         CONSTANT HEAD =           0.0000
               WELLS =        1500.0000                 WELLS =         500.0000
     HEAD DEP BOUNDS =       74630.3984       HEAD DEP BOUNDS =         528.6964

           TOTAL OUT =       76130.3984             TOTAL OUT =        1028.6963

            IN - OUT =          -0.3281              IN - OUT =      -1.5869E-03

 PERCENT DISCREPANCY =          -0.00     PERCENT DISCREPANCY =          -0.00






         TIME SUMMARY AT END OF TIME STEP    3 IN STRESS PERIOD    3
                    SECONDS     MINUTES      HOURS       DAYS        YEARS
                    -----------------------------------------------------------
   TIME STEP LENGTH  86400.      1440.0      24.000      1.0000     2.73785E-03
 STRESS PERIOD TIME 2.59200E+05  4320.0      72.000      3.0000     8.21355E-03
         TOTAL TIME 8.98560E+06 1.49760E+05  2496.0      104.00     0.28474    
1

 SOLVING FOR HEAD 

 OUTPUT CONTROL FOR STRESS PERIOD    3   TIME STEP    4
    SAVE HEAD FOR ALL LAYERS
    SAVE DRAWDOWN FOR ALL LAYERS
    SAVE BUDGET
    PRINT HEAD FOR ALL LAYERS
    PRINT BUDGET
 UBDSV1 SAVING "         STORAGE" ON UNIT  53 AT TIME STEP  4, STRESS PERIOD   3
 UBDSV2 SAVING "   CONSTANT HEAD" ON UNIT  53 AT TIME STEP  4, STRESS PERIOD   3
 UBDSV1 SAVING "FLOW RIGHT FACE " ON UNIT  53 AT TIME STEP  4, STRESS PERIOD   3
 UBDSV1 SAVING "FLOW FRONT FACE " ON UNIT  53 AT TIME STEP  4, STRESS PERIOD   3
1
              HEAD IN LAYER   1 AT END OF TIME STEP   4 IN STRESS PERIOD    3
  ---------------------------------------------------------------------------

            1           2           3           4           5           6           7           8           9          10
 ........................................................................................................................
   1    9.990       8.803       7.615       6.437       5.296       4.213       3.164       2.120       1.069      1.0582E-02
   2    9.990       8.772       7.544       6.318       5.143       4.092       3.090       2.082       1.053      1.0431E-02
   3    9.989       8.711       7.395       6.038       4.744       3.811       2.936       2.009       1.025      1.0154E-02
   4    9.989       8.633       7.179       5.540       3.805       3.311       2.715       1.919      0.9935      9.8425E-03
   5    9.988       8.585       7.008       4.928       1.381       2.698       2.542       1.865      0.9773      9.6845E-03
   6    9.989       8.635       7.183       5.544       3.810       3.316       2.719       1.922      0.9949      9.8559E-03
   7    9.989       8.715       7.404       6.050       4.757       3.823       2.946       2.016       1.029      1.0187E-02
   8    9.990       8.782       7.564       6.345       5.173       4.120       3.112       2.096       1.060      1.0500E-02
   9    9.990       8.823       7.656       6.495       5.361       4.272       3.209       2.148       1.082      1.0715E-02
  10    9.990       8.842       7.696       6.556       5.434       4.335       3.251       2.173       1.093      1.0819E-02

 HEAD WILL BE SAVED ON UNIT   51 AT END OF TIME STEP    4, STRESS PERIOD    3

 DRAWDOWN WILL BE SAVED ON UNIT   52 AT END OF TIME STEP    4, STRESS PERIOD    3
1
  VOLUMETRIC BUDGET FOR ENTIRE MODEL AT END OF TIME STEP    4, STRESS PERIOD   3
  ------------------------------------------------------------------------------

     CUMULATIVE VOLUMES      L**3       RATES FOR THIS TIME STEP      L**3/T
     ------------------                 ------------------------

           IN:                                      IN:
           ---                                      ---
             STORAGE =       26745.0059               STORAGE =         384.3792
       CONSTANT HEAD =           0.0000         CONSTANT HEAD =           0.0000
               WELLS =           0.0000                 WELLS =           0.0000
     HEAD DEP BOUNDS =       50398.9141       HEAD DEP BOUNDS =         629.4711

            TOTAL IN =       77143.9219              TOTAL IN =        1013.8503

          OUT:                                     OUT:
          ----                                     ----
             STORAGE =           0.0000               STORAGE =           0.0000
       CONSTANT HEAD =           0.0000         CONSTANT HEAD =           0.0000
               WELLS =        2000.0000                 WELLS =         500.0000
     HEAD DEP BOUNDS =       75144.2500       HEAD DEP BOUNDS =         513.8490

           TOTAL OUT =       77144.2500             TOTAL OUT =        1013.8490

            IN - OUT =          -0.3281              IN - OUT =       1.3428E-03

 PERCENT DISCREPANCY =          -0.00     PERCENT DISCREPANCY =           0.00






         TIME SUMMARY AT END OF TIME STEP    4 IN STRESS PERIOD    3
                    SECONDS     MINUTES      HOURS       DAYS        YEARS
                    -----------------------------------------------------------
   TIME STEP LENGTH  86400.      1440.0      24.000      1.0000     2.73785E-03
 STRESS PERIOD TIME 3.45600E+05  5760.0      96.000      4.0000     1.09514E-02
         TOTAL TIME 9.07200E+06 1.51200E+05  2520.0      105.00     0.28747    
1

 SOLVING FOR HEAD 

 OUTPUT CONTROL FOR STRESS PERIOD    3   TIME STEP    5
    SAVE HEAD FOR ALL LAYERS
    SAVE DRAWDOWN FOR ALL LAYERS
    SAVE BUDGET
    PRINT HEAD FOR ALL LAYERS
    PRINT BUDGET
 UBDSV1 SAVING "         STORAGE" ON UNIT  53 AT TIME STEP  5, STRESS PERIOD   3
 UBDSV2 SAVING "   CONSTANT HEAD" ON UNIT  53 AT TIME STEP  5, STRESS PERIOD   3
 UBDSV1 SAVING "FLOW RIGHT FACE " ON UNIT  53 AT TIME STEP  5, STRESS PERIOD   3
 UBDSV1 SAVING "FLOW FRONT FACE " ON UNIT  53 AT TIME STEP  5, STRESS PERIOD   3
1
              HEAD IN LAYER   1 AT END OF TIME STEP   5 IN STRESS PERIOD    3
  ---------------------------------------------------------------------------

            1           2           3           4           5           6           7           8           9          10
 ........................................................................................................................
   1    9.990       8.769       7.550       6.349       5.198       4.120       3.088       2.068       1.043      1.0325E-02
   2    9.990       8.731       7.467       6.212       5.025       3.982       3.001       2.022       1.024      1.0135E-02
   3    9.989       8.660       7.297       5.902       4.591       3.669       2.825       1.936      0.9891      9.7963E-03
   4    9.988       8.572       7.061       5.373       3.617       3.138       2.582       1.832      0.9515      9.4265E-03
   5    9.988       8.520       6.881       4.748       1.177       2.512       2.400       1.773      0.9330      9.2462E-03
   6    9.988       8.575       7.066       5.381       3.625       3.146       2.589       1.837      0.9538      9.4492E-03
   7    9.989       8.668       7.311       5.921       4.613       3.689       2.841       1.947      0.9947      9.8513E-03
   8    9.990       8.747       7.496       6.252       5.070       4.024       3.035       2.044       1.034      1.0244E-02
   9    9.990       8.798       7.607       6.430       5.288       4.203       3.153       2.110       1.063      1.0523E-02
  10    9.990       8.822       7.658       6.505       5.377       4.280       3.206       2.141       1.077      1.0663E-02

 HEAD WILL BE SAVED ON UNIT   51 AT END OF TIME STEP    5, STRESS PERIOD    3

 DRAWDOWN WILL BE SAVED ON UNIT   52 AT END OF TIME STEP    5, STRESS PERIOD    3
1
  VOLUMETRIC BUDGET FOR ENTIRE MODEL AT END OF TIME STEP    5, STRESS PERIOD   3
  ------------------------------------------------------------------------------

     CUMULATIVE VOLUMES      L**3       RATES FOR THIS TIME STEP      L**3/T
     ------------------                 ------------------------

           IN:                                      IN:
           ---                                      ---
             STORAGE =       27092.0254               STORAGE =         347.0188
       CONSTANT HEAD =           0.0000         CONSTANT HEAD =           0.0000
               WELLS =           0.0000                 WELLS =           0.0000
     HEAD DEP BOUNDS =       51050.1914       HEAD DEP BOUNDS =         651.2764

            TOTAL IN =       78142.2188              TOTAL IN =         998.2952

          OUT:                                     OUT:
          ----                                     ----
             STORAGE =           0.0000               STORAGE =           0.0000
       CONSTANT HEAD =           0.0000         CONSTANT HEAD =           0.0000
               WELLS =        2500.0000                 WELLS =         500.0000
     HEAD DEP BOUNDS =       75642.5469       HEAD DEP BOUNDS =         498.2947

           TOTAL OUT =       78142.5469             TOTAL OUT =         998.2947

            IN - OUT =          -0.3281              IN - OUT =       4.8828E-04

 PERCENT DISCREPANCY =          -0.00     PERCENT DISCREPANCY =           0.00






         TIME SUMMARY AT END OF TIME STEP    5 IN STRESS PERIOD    3
                    SECONDS     MINUTES      HOURS       DAYS        YEARS
                    -----------------------------------------------------------
   TIME STEP LENGTH  86400.      1440.0      24.000      1.0000     2.73785E-03
 STRESS PERIOD TIME 4.32000E+05  7200.0      120.00      5.0000     1.36893E-02
         TOTAL TIME 9.15840E+06 1.52640E+05  2544.0      106.00     0.29021    
1

 SOLVING FOR HEAD 

 OUTPUT CONTROL FOR STRESS PERIOD    3   TIME STEP    6
    SAVE HEAD FOR ALL LAYERS
    SAVE DRAWDOWN FOR ALL LAYERS
    SAVE BUDGET
    PRINT HEAD FOR ALL LAYERS
    PRINT BUDGET
 UBDSV1 SAVING "         STORAGE" ON UNIT  53 AT TIME STEP  6, STRESS PERIOD   3
 UBDSV2 SAVING "   CONSTANT HEAD" ON UNIT  53 AT TIME STEP  6, STRESS PERIOD   3
 UBDSV1 SAVING "FLOW RIGHT FACE " ON UNIT  53 AT TIME STEP  6, STRESS PERIOD   3
 UBDSV1 SAVING "FLOW FRONT FACE " ON UNIT  53 AT TIME STEP  6, STRESS PERIOD   3
1
              HEAD IN LAYER   1 AT END OF TIME STEP   6 IN STRESS PERIOD    3
  ---------------------------------------------------------------------------

            1           2           3           4           5           6           7           8           9          10
 ........................................................................................................................
   1    9.990       8.734       7.485       6.262       5.101       4.027       3.011       2.014       1.015      1.0049E-02
   2    9.989       8.693       7.394       6.114       4.915       3.877       2.915       1.962      0.9928      9.8312E-03
   3    9.989       8.614       7.210       5.785       4.461       3.545       2.724       1.866      0.9538      9.4471E-03
   4    9.988       8.520       6.961       5.238       3.466       2.996       2.467       1.754      0.9121      9.0364E-03
   5    9.987       8.466       6.777       4.606       1.018       2.362       2.279       1.692      0.8923      8.8424E-03
   6    9.988       8.525       6.969       5.249       3.478       3.007       2.476       1.760      0.9155      9.0703E-03
   7    9.989       8.625       7.230       5.812       4.490       3.573       2.747       1.882      0.9619      9.5270E-03
   8    9.989       8.713       7.433       6.167       4.975       3.933       2.960       1.993       1.008      9.9837E-03
   9    9.990       8.772       7.559       6.364       5.216       4.134       3.095       2.069       1.042      1.0316E-02
  10    9.990       8.800       7.617       6.451       5.316       4.222       3.157       2.107       1.059      1.0485E-02

 HEAD WILL BE SAVED ON UNIT   51 AT END OF TIME STEP    6, STRESS PERIOD    3

 DRAWDOWN WILL BE SAVED ON UNIT   52 AT END OF TIME STEP    6, STRESS PERIOD    3
1
  VOLUMETRIC BUDGET FOR ENTIRE MODEL AT END OF TIME STEP    6, STRESS PERIOD   3
  ------------------------------------------------------------------------------

     CUMULATIVE VOLUMES      L**3       RATES FOR THIS TIME STEP      L**3/T
     ------------------                 ------------------------

           IN:                                      IN:
           ---                                      ---
             STORAGE =       27403.8125               STORAGE =         311.7877
       CONSTANT HEAD =           0.0000         CONSTANT HEAD =           0.0000
               WELLS =           0.0000                 WELLS =           0.0000
     HEAD DEP BOUNDS =       51721.3516       HEAD DEP BOUNDS =         671.1615

            TOTAL IN =       79125.1641              TOTAL IN =         982.9492

          OUT:                                     OUT:
          ----                                     ----
             STORAGE =           0.0000               STORAGE =           0.0000
       CONSTANT HEAD =           0.0000         CONSTANT HEAD =           0.0000
               WELLS =        3000.0000                 WELLS =         500.0000
     HEAD DEP BOUNDS =       76125.4922       HEAD DEP BOUNDS =         482.9468

           TOTAL OUT =       79125.4922             TOTAL OUT =         982.9468

            IN - OUT =          -0.3281              IN - OUT =       2.4414E-03

 PERCENT DISCREPANCY =          -0.00     PERCENT DISCREPANCY =           0.00






         TIME SUMMARY AT END OF TIME STEP    6 IN STRESS PERIOD    3
                    SECONDS     MINUTES      HOURS       DAYS        YEARS
                    -----------------------------------------------------------
   TIME STEP LENGTH  86400.      1440.0      24.000      1.0000     2.73785E-03
 STRESS PERIOD TIME 5.18400E+05  8640.0      144.00      6.0000     1.64271E-02
         TOTAL TIME 9.24480E+06 1.54080E+05  2568.0      107.00     0.29295    
1

 SOLVING FOR HEAD 

 OUTPUT CONTROL FOR STRESS PERIOD    3   TIME STEP    7
    SAVE HEAD FOR ALL LAYERS
    SAVE DRAWDOWN FOR ALL LAYERS
    SAVE BUDGET
    PRINT HEAD FOR ALL LAYERS
    PRINT BUDGET
 UBDSV1 SAVING "         STORAGE" ON UNIT  53 AT TIME STEP  7, STRESS PERIOD   3
 UBDSV2 SAVING "   CONSTANT HEAD" ON UNIT  53 AT TIME STEP  7, STRESS PERIOD   3
 UBDSV1 SAVING "FLOW RIGHT FACE " ON UNIT  53 AT TIME STEP  7, STRESS PERIOD   3
 UBDSV1 SAVING "FLOW FRONT FACE " ON UNIT  53 AT TIME STEP  7, STRESS PERIOD   3
1
              HEAD IN LAYER   1 AT END OF TIME STEP   7 IN STRESS PERIOD    3
  ---------------------------------------------------------------------------

            1           2           3           4           5           6           7           8           9          10
 ........................................................................................................................
   1    9.989       8.701       7.423       6.179       5.008       3.938       2.936       1.960      0.9869      9.7716E-03
   2    9.989       8.656       7.326       6.023       4.815       3.780       2.833       1.904      0.9627      9.5333E-03
   3    9.988       8.574       7.134       5.683       4.347       3.436       2.632       1.801      0.9206      9.1180E-03
   4    9.987       8.476       6.878       5.126       3.341       2.876       2.367       1.684      0.8761      8.6804E-03
   5    9.987       8.420       6.691       4.490      0.8889       2.239       2.177       1.620      0.8556      8.4790E-03
   6    9.987       8.482       6.888       5.140       3.357       2.891       2.380       1.693      0.8808      8.7265E-03
   7    9.988       8.587       7.160       5.717       4.385       3.472       2.662       1.822      0.9314      9.2246E-03
   8    9.989       8.682       7.375       6.090       4.889       3.850       2.891       1.943      0.9826      9.7304E-03
   9    9.990       8.747       7.512       6.301       5.145       4.066       3.037       2.028       1.021      1.0105E-02
  10    9.990       8.778       7.576       6.396       5.255       4.162       3.107       2.070       1.040      1.0298E-02

 HEAD WILL BE SAVED ON UNIT   51 AT END OF TIME STEP    7, STRESS PERIOD    3

 DRAWDOWN WILL BE SAVED ON UNIT   52 AT END OF TIME STEP    7, STRESS PERIOD    3
1
  VOLUMETRIC BUDGET FOR ENTIRE MODEL AT END OF TIME STEP    7, STRESS PERIOD   3
  ------------------------------------------------------------------------------

     CUMULATIVE VOLUMES      L**3       RATES FOR THIS TIME STEP      L**3/T
     ------------------                 ------------------------

           IN:                                      IN:
           ---                                      ---
             STORAGE =       27683.1719               STORAGE =         279.3589
       CONSTANT HEAD =           0.0000         CONSTANT HEAD =           0.0000
               WELLS =           0.0000                 WELLS =           0.0000
     HEAD DEP BOUNDS =       52410.3242       HEAD DEP BOUNDS =         688.9715

            TOTAL IN =       80093.5000              TOTAL IN =         968.3304

          OUT:                                     OUT:
          ----                                     ----
             STORAGE =           0.0000               STORAGE =           0.0000
       CONSTANT HEAD =           0.0000         CONSTANT HEAD =           0.0000
               WELLS =        3500.0000                 WELLS =         500.0000
     HEAD DEP BOUNDS =       76593.8281       HEAD DEP BOUNDS =         468.3336

           TOTAL OUT =       80093.8281             TOTAL OUT =         968.3336

            IN - OUT =          -0.3281              IN - OUT =      -3.1128E-03

 PERCENT DISCREPANCY =          -0.00     PERCENT DISCREPANCY =          -0.00






         TIME SUMMARY AT END OF TIME STEP    7 IN STRESS PERIOD    3
                    SECONDS     MINUTES      HOURS       DAYS        YEARS
                    -----------------------------------------------------------
   TIME STEP LENGTH  86400.      1440.0      24.000      1.0000     2.73785E-03
 STRESS PERIOD TIME 6.04800E+05  10080.      168.00      7.0000     1.91650E-02
         TOTAL TIME 9.33120E+06 1.55520E+05  2592.0      108.00     0.29569    
1

 SOLVING FOR HEAD 

 OUTPUT CONTROL FOR STRESS PERIOD    3   TIME STEP    8
    SAVE HEAD FOR ALL LAYERS
    SAVE DRAWDOWN FOR ALL LAYERS
    SAVE BUDGET
    PRINT HEAD FOR ALL LAYERS
    PRINT BUDGET
 UBDSV1 SAVING "         STORAGE" ON UNIT  53 AT TIME STEP  8, STRESS PERIOD   3
 UBDSV2 SAVING "   CONSTANT HEAD" ON UNIT  53 AT TIME STEP  8, STRESS PERIOD   3
 UBDSV1 SAVING "FLOW RIGHT FACE " ON UNIT  53 AT TIME STEP  8, STRESS PERIOD   3
 UBDSV1 SAVING "FLOW FRONT FACE " ON UNIT  53 AT TIME STEP  8, STRESS PERIOD   3
1
              HEAD IN LAYER   1 AT END OF TIME STEP   8 IN STRESS PERIOD    3
  ---------------------------------------------------------------------------

            1           2           3           4           5           6           7           8           9          10
 ........................................................................................................................
   1    9.989       8.669       7.365       6.102       4.922       3.853       2.864       1.908      0.9597      9.5020E-03
   2    9.989       8.623       7.265       5.941       4.723       3.691       2.757       1.849      0.9342      9.2502E-03
   3    9.988       8.538       7.067       5.594       4.248       3.340       2.550       1.742      0.8900      8.8144E-03
   4    9.987       8.438       6.807       5.031       3.235       2.773       2.280       1.622      0.8438      8.3599E-03
   5    9.987       8.382       6.619       4.394      0.7815       2.135       2.089       1.557      0.8229      8.1555E-03
   6    9.987       8.445       6.820       5.049       3.255       2.792       2.296       1.633      0.8497      8.4186E-03
   7    9.988       8.555       7.099       5.636       4.294       3.384       2.588       1.769      0.9034      8.9477E-03
   8    9.989       8.654       7.323       6.021       4.812       3.775       2.826       1.897      0.9584      9.4905E-03
   9    9.989       8.723       7.467       6.242       5.079       4.001       2.982       1.988      0.9996      9.8972E-03
  10    9.990       8.756       7.535       6.342       5.195       4.104       3.057       2.034       1.021      1.0108E-02

 HEAD WILL BE SAVED ON UNIT   51 AT END OF TIME STEP    8, STRESS PERIOD    3

 DRAWDOWN WILL BE SAVED ON UNIT   52 AT END OF TIME STEP    8, STRESS PERIOD    3
1
  VOLUMETRIC BUDGET FOR ENTIRE MODEL AT END OF TIME STEP    8, STRESS PERIOD   3
  ------------------------------------------------------------------------------

     CUMULATIVE VOLUMES      L**3       RATES FOR THIS TIME STEP      L**3/T
     ------------------                 ------------------------

           IN:                                      IN:
           ---                                      ---
             STORAGE =       27933.0801               STORAGE =         249.9081
       CONSTANT HEAD =           0.0000         CONSTANT HEAD =           0.0000
               WELLS =           0.0000                 WELLS =           0.0000
     HEAD DEP BOUNDS =       53115.1328       HEAD DEP BOUNDS =         704.8102

            TOTAL IN =       81048.2109              TOTAL IN =         954.7184

          OUT:                                     OUT:
          ----                                     ----
             STORAGE =           0.0000               STORAGE =           0.0000
       CONSTANT HEAD =           0.0000         CONSTANT HEAD =           0.0000
               WELLS =        4000.0000                 WELLS =         500.0000
     HEAD DEP BOUNDS =       77048.5469       HEAD DEP BOUNDS =         454.7216

           TOTAL OUT =       81048.5469             TOTAL OUT =         954.7216

            IN - OUT =          -0.3359              IN - OUT =      -3.1738E-03

 PERCENT DISCREPANCY =          -0.00     PERCENT DISCREPANCY =          -0.00






         TIME SUMMARY AT END OF TIME STEP    8 IN STRESS PERIOD    3
                    SECONDS     MINUTES      HOURS       DAYS        YEARS
                    -----------------------------------------------------------
   TIME STEP LENGTH  86400.      1440.0      24.000      1.0000     2.73785E-03
 STRESS PERIOD TIME 6.91200E+05  11520.      192.00      8.0000     2.19028E-02
         TOTAL TIME 9.41760E+06 1.56960E+05  2616.0      109.00     0.29843    
1

 SOLVING FOR HEAD 

 OUTPUT CONTROL FOR STRESS PERIOD    3   TIME STEP    9
    SAVE HEAD FOR ALL LAYERS
    SAVE DRAWDOWN FOR ALL LAYERS
    SAVE BUDGET
    PRINT HEAD FOR ALL LAYERS
    PRINT BUDGET
 UBDSV1 SAVING "         STORAGE" ON UNIT  53 AT TIME STEP  9, STRESS PERIOD   3
 UBDSV2 SAVING "   CONSTANT HEAD" ON UNIT  53 AT TIME STEP  9, STRESS PERIOD   3
 UBDSV1 SAVING "FLOW RIGHT FACE " ON UNIT  53 AT TIME STEP  9, STRESS PERIOD   3
 UBDSV1 SAVING "FLOW FRONT FACE " ON UNIT  53 AT TIME STEP  9, STRESS PERIOD   3
1
              HEAD IN LAYER   1 AT END OF TIME STEP   9 IN STRESS PERIOD    3
  ---------------------------------------------------------------------------

            1           2           3           4           5           6           7           8           9          10
 ........................................................................................................................
   1    9.989       8.641       7.311       6.031       4.842       3.775       2.797       1.859      0.9340      9.2471E-03
   2    9.988       8.594       7.209       5.868       4.641       3.610       2.688       1.799      0.9076      8.9867E-03
   3    9.988       8.507       7.009       5.516       4.161       3.254       2.477       1.689      0.8621      8.5379E-03
   4    9.987       8.405       6.746       4.950       3.144       2.684       2.204       1.566      0.8149      8.0735E-03
   5    9.986       8.349       6.557       4.313      0.6904       2.046       2.013       1.502      0.7940      7.8689E-03
   6    9.987       8.414       6.762       4.971       3.168       2.707       2.224       1.580      0.8220      8.1445E-03
   7    9.988       8.526       7.046       5.565       4.215       3.307       2.521       1.720      0.8781      8.6968E-03
   8    9.989       8.629       7.276       5.958       4.742       3.706       2.768       1.854      0.9359      9.2671E-03
   9    9.989       8.701       7.425       6.187       5.017       3.940       2.930       1.950      0.9795      9.6978E-03
  10    9.990       8.736       7.497       6.291       5.137       4.047       3.008       1.999       1.002      9.9228E-03

 HEAD WILL BE SAVED ON UNIT   51 AT END OF TIME STEP    9, STRESS PERIOD    3

 DRAWDOWN WILL BE SAVED ON UNIT   52 AT END OF TIME STEP    9, STRESS PERIOD    3
1
  VOLUMETRIC BUDGET FOR ENTIRE MODEL AT END OF TIME STEP    9, STRESS PERIOD   3
  ------------------------------------------------------------------------------

     CUMULATIVE VOLUMES      L**3       RATES FOR THIS TIME STEP      L**3/T
     ------------------                 ------------------------

           IN:                                      IN:
           ---                                      ---
             STORAGE =       28156.4434               STORAGE =         223.3623
       CONSTANT HEAD =           0.0000         CONSTANT HEAD =           0.0000
               WELLS =           0.0000                 WELLS =           0.0000
     HEAD DEP BOUNDS =       53833.9883       HEAD DEP BOUNDS =         718.8554

            TOTAL IN =       81990.4297              TOTAL IN =         942.2178

          OUT:                                     OUT:
          ----                                     ----
             STORAGE =           0.0000               STORAGE =           0.0000
       CONSTANT HEAD =           0.0000         CONSTANT HEAD =           0.0000
               WELLS =        4500.0000                 WELLS =         500.0000
     HEAD DEP BOUNDS =       77490.7656       HEAD DEP BOUNDS =         442.2162

           TOTAL OUT =       81990.7656             TOTAL OUT =         942.2162

            IN - OUT =          -0.3359              IN - OUT =       1.5869E-03

 PERCENT DISCREPANCY =          -0.00     PERCENT DISCREPANCY =           0.00






         TIME SUMMARY AT END OF TIME STEP    9 IN STRESS PERIOD    3
                    SECONDS     MINUTES      HOURS       DAYS        YEARS
                    -----------------------------------------------------------
   TIME STEP LENGTH  86400.      1440.0      24.000      1.0000     2.73785E-03
 STRESS PERIOD TIME 7.77600E+05  12960.      216.00      9.0000     2.46407E-02
         TOTAL TIME 9.50400E+06 1.58400E+05  2640.0      110.00     0.30116    
1

 SOLVING FOR HEAD 

 OUTPUT CONTROL FOR STRESS PERIOD    3   TIME STEP   10
    SAVE HEAD FOR ALL LAYERS
    SAVE DRAWDOWN FOR ALL LAYERS
    SAVE BUDGET
    PRINT HEAD FOR ALL LAYERS
    PRINT BUDGET
 UBDSV1 SAVING "         STORAGE" ON UNIT  53 AT TIME STEP 10, STRESS PERIOD   3
 UBDSV2 SAVING "   CONSTANT HEAD" ON UNIT  53 AT TIME STEP 10, STRESS PERIOD   3
 UBDSV1 SAVING "FLOW RIGHT FACE " ON UNIT  53 AT TIME STEP 10, STRESS PERIOD   3
 UBDSV1 SAVING "FLOW FRONT FACE " ON UNIT  53 AT TIME STEP 10, STRESS PERIOD   3
1
              HEAD IN LAYER   1 AT END OF TIME STEP  10 IN STRESS PERIOD    3
  ---------------------------------------------------------------------------

            1           2           3           4           5           6           7           8           9          10
 ........................................................................................................................
   1    9.989       8.615       7.263       5.966       4.770       3.704       2.735       1.814      0.9101      9.0106E-03
   2    9.988       8.567       7.160       5.802       4.567       3.537       2.625       1.753      0.8832      8.7448E-03
   3    9.987       8.479       6.958       5.448       4.084       3.179       2.412       1.642      0.8369      8.2883E-03
   4    9.987       8.377       6.693       4.880       3.065       2.607       2.138       1.518      0.7891      7.8184E-03
   5    9.986       8.321       6.505       4.243      0.6120       1.969       1.947       1.454      0.7684      7.6153E-03
   6    9.987       8.387       6.711       4.904       3.093       2.633       2.160       1.534      0.7975      7.9011E-03
   7    9.988       8.501       6.999       5.503       4.146       3.238       2.462       1.677      0.8553      8.4709E-03
   8    9.988       8.607       7.234       5.902       4.679       3.644       2.714       1.815      0.9151      9.0615E-03
   9    9.989       8.680       7.387       6.136       4.960       3.884       2.881       1.914      0.9605      9.5099E-03
  10    9.989       8.717       7.461       6.243       5.083       3.994       2.962       1.965      0.9843      9.7451E-03

 HEAD WILL BE SAVED ON UNIT   51 AT END OF TIME STEP   10, STRESS PERIOD    3

 DRAWDOWN WILL BE SAVED ON UNIT   52 AT END OF TIME STEP   10, STRESS PERIOD    3
1
  VOLUMETRIC BUDGET FOR ENTIRE MODEL AT END OF TIME STEP   10, STRESS PERIOD   3
  ------------------------------------------------------------------------------

     CUMULATIVE VOLUMES      L**3       RATES FOR THIS TIME STEP      L**3/T
     ------------------                 ------------------------

           IN:                                      IN:
           ---                                      ---
             STORAGE =       28355.9785               STORAGE =         199.5355
       CONSTANT HEAD =           0.0000         CONSTANT HEAD =           0.0000
               WELLS =           0.0000                 WELLS =           0.0000
     HEAD DEP BOUNDS =       54565.2891       HEAD DEP BOUNDS =         731.2995

            TOTAL IN =       82921.2656              TOTAL IN =         930.8350

          OUT:                                     OUT:
          ----                                     ----
             STORAGE =           0.0000               STORAGE =           0.0000
       CONSTANT HEAD =           0.0000         CONSTANT HEAD =           0.0000
               WELLS =        5000.0000                 WELLS =         500.0000
     HEAD DEP BOUNDS =       77921.5938       HEAD DEP BOUNDS =         430.8293

           TOTAL OUT =       82921.5938             TOTAL OUT =         930.8293

            IN - OUT =          -0.3281              IN - OUT =       5.6152E-03

 PERCENT DISCREPANCY =          -0.00     PERCENT DISCREPANCY =           0.00






         TIME SUMMARY AT END OF TIME STEP   10 IN STRESS PERIOD    3
                    SECONDS     MINUTES      HOURS       DAYS        YEARS
                    -----------------------------------------------------------
   TIME STEP LENGTH  86400.      1440.0      24.000      1.0000     2.73785E-03
 STRESS PERIOD TIME 8.64000E+05  14400.      240.00      10.000     2.73785E-02
         TOTAL TIME 9.59040E+06 1.59840E+05  2664.0      111.00     0.30390    
1

 SOLVING FOR HEAD 

 OUTPUT CONTROL FOR STRESS PERIOD    3   TIME STEP   11
    SAVE HEAD FOR ALL LAYERS
    SAVE DRAWDOWN FOR ALL LAYERS
    SAVE BUDGET
    PRINT HEAD FOR ALL LAYERS
    PRINT BUDGET
 UBDSV1 SAVING "         STORAGE" ON UNIT  53 AT TIME STEP 11, STRESS PERIOD   3
 UBDSV2 SAVING "   CONSTANT HEAD" ON UNIT  53 AT TIME STEP 11, STRESS PERIOD   3
 UBDSV1 SAVING "FLOW RIGHT FACE " ON UNIT  53 AT TIME STEP 11, STRESS PERIOD   3
 UBDSV1 SAVING "FLOW FRONT FACE " ON UNIT  53 AT TIME STEP 11, STRESS PERIOD   3
1
              HEAD IN LAYER   1 AT END OF TIME STEP  11 IN STRESS PERIOD    3
  ---------------------------------------------------------------------------

            1           2           3           4           5           6           7           8           9          10
 ........................................................................................................................
   1    9.988       8.592       7.220       5.908       4.705       3.640       2.679       1.773      0.8882      8.7938E-03
   2    9.988       8.543       7.116       5.743       4.500       3.471       2.568       1.711      0.8610      8.5248E-03
   3    9.987       8.455       6.913       5.388       4.016       3.112       2.354       1.599      0.8142      8.0639E-03
   4    9.986       8.352       6.647       4.819       2.997       2.539       2.079       1.475      0.7663      7.5917E-03
   5    9.986       8.296       6.460       4.182      0.5440       1.902       1.888       1.411      0.7458      7.3908E-03
   6    9.986       8.363       6.668       4.846       3.027       2.569       2.104       1.493      0.7757      7.6850E-03
   7    9.987       8.479       6.958       5.449       4.084       3.178       2.410       1.639      0.8348      8.2679E-03
   8    9.988       8.586       7.197       5.852       4.622       3.588       2.665       1.779      0.8962      8.8736E-03
   9    9.989       8.661       7.352       6.089       4.907       3.832       2.835       1.881      0.9429      9.3351E-03
  10    9.989       8.699       7.427       6.198       5.033       3.944       2.919       1.933      0.9674      9.5778E-03

 HEAD WILL BE SAVED ON UNIT   51 AT END OF TIME STEP   11, STRESS PERIOD    3

 DRAWDOWN WILL BE SAVED ON UNIT   52 AT END OF TIME STEP   11, STRESS PERIOD    3
1
  VOLUMETRIC BUDGET FOR ENTIRE MODEL AT END OF TIME STEP   11, STRESS PERIOD   3
  ------------------------------------------------------------------------------

     CUMULATIVE VOLUMES      L**3       RATES FOR THIS TIME STEP      L**3/T
     ------------------                 ------------------------

           IN:                                      IN:
           ---                                      ---
             STORAGE =       28534.1777               STORAGE =         178.1996
       CONSTANT HEAD =           0.0000         CONSTANT HEAD =           0.0000
               WELLS =           0.0000                 WELLS =           0.0000
     HEAD DEP BOUNDS =       55307.6211       HEAD DEP BOUNDS =         742.3334

            TOTAL IN =       83841.7969              TOTAL IN =         920.5330

          OUT:                                     OUT:
          ----                                     ----
             STORAGE =           0.0000               STORAGE =           0.0000
       CONSTANT HEAD =           0.0000         CONSTANT HEAD =           0.0000
               WELLS =        5500.0000                 WELLS =         500.0000
     HEAD DEP BOUNDS =       78342.1172       HEAD DEP BOUNDS =         420.5216

           TOTAL OUT =       83842.1172             TOTAL OUT =         920.5216

            IN - OUT =          -0.3203              IN - OUT =       1.1414E-02

 PERCENT DISCREPANCY =          -0.00     PERCENT DISCREPANCY =           0.00






         TIME SUMMARY AT END OF TIME STEP   11 IN STRESS PERIOD    3
                    SECONDS     MINUTES      HOURS       DAYS        YEARS
                    -----------------------------------------------------------
   TIME STEP LENGTH  86400.      1440.0      24.000      1.0000     2.73785E-03
 STRESS PERIOD TIME 9.50400E+05  15840.      264.00      11.000     3.01164E-02
         TOTAL TIME 9.67680E+06 1.61280E+05  2688.0      112.00     0.30664    
1

 SOLVING FOR HEAD 

 OUTPUT CONTROL FOR STRESS PERIOD    3   TIME STEP   12
    SAVE HEAD FOR ALL LAYERS
    SAVE DRAWDOWN FOR ALL LAYERS
    SAVE BUDGET
    PRINT HEAD FOR ALL LAYERS
    PRINT BUDGET
 UBDSV1 SAVING "         STORAGE" ON UNIT  53 AT TIME STEP 12, STRESS PERIOD   3
 UBDSV2 SAVING "   CONSTANT HEAD" ON UNIT  53 AT TIME STEP 12, STRESS PERIOD   3
 UBDSV1 SAVING "FLOW RIGHT FACE " ON UNIT  53 AT TIME STEP 12, STRESS PERIOD   3
 UBDSV1 SAVING "FLOW FRONT FACE " ON UNIT  53 AT TIME STEP 12, STRESS PERIOD   3
1
              HEAD IN LAYER   1 AT END OF TIME STEP  12 IN STRESS PERIOD    3
  ---------------------------------------------------------------------------

            1           2           3           4           5           6           7           8           9          10
 ........................................................................................................................
   1    9.988       8.571       7.181       5.856       4.646       3.582       2.628       1.736      0.8684      8.5968E-03
   2    9.988       8.522       7.076       5.690       4.441       3.413       2.517       1.673      0.8409      8.3261E-03
   3    9.987       8.434       6.873       5.334       3.956       3.052       2.302       1.561      0.7940      7.8630E-03
   4    9.986       8.331       6.607       4.765       2.936       2.480       2.027       1.436      0.7459      7.3901E-03
   5    9.986       8.275       6.420       4.130      0.4846       1.843       1.837       1.373      0.7257      7.1919E-03
   6    9.986       8.343       6.630       4.795       2.970       2.512       2.054       1.456      0.7563      7.4929E-03
   7    9.987       8.460       6.922       5.401       4.030       3.124       2.363       1.604      0.8165      8.0859E-03
   8    9.988       8.568       7.163       5.807       4.571       3.538       2.621       1.747      0.8790      8.7028E-03
   9    9.989       8.644       7.321       6.046       4.859       3.784       2.794       1.850      0.9266      9.1739E-03
  10    9.989       8.682       7.397       6.157       4.987       3.899       2.879       1.903      0.9517      9.4222E-03

 HEAD WILL BE SAVED ON UNIT   51 AT END OF TIME STEP   12, STRESS PERIOD    3

 DRAWDOWN WILL BE SAVED ON UNIT   52 AT END OF TIME STEP   12, STRESS PERIOD    3
1
  VOLUMETRIC BUDGET FOR ENTIRE MODEL AT END OF TIME STEP   12, STRESS PERIOD   3
  ------------------------------------------------------------------------------

     CUMULATIVE VOLUMES      L**3       RATES FOR THIS TIME STEP      L**3/T
     ------------------                 ------------------------

           IN:                                      IN:
           ---                                      ---
             STORAGE =       28693.2969               STORAGE =         159.1194
       CONSTANT HEAD =           0.0000         CONSTANT HEAD =           0.0000
               WELLS =           0.0000                 WELLS =           0.0000
     HEAD DEP BOUNDS =       56059.7305       HEAD DEP BOUNDS =         752.1097

            TOTAL IN =       84753.0312              TOTAL IN =         911.2290

          OUT:                                     OUT:
          ----                                     ----
             STORAGE =           0.0000               STORAGE =           0.0000
       CONSTANT HEAD =           0.0000         CONSTANT HEAD =           0.0000
               WELLS =        6000.0000                 WELLS =         500.0000
     HEAD DEP BOUNDS =       78753.3438       HEAD DEP BOUNDS =         411.2277

           TOTAL OUT =       84753.3438             TOTAL OUT =         911.2277

            IN - OUT =          -0.3125              IN - OUT =       1.3428E-03

 PERCENT DISCREPANCY =          -0.00     PERCENT DISCREPANCY =           0.00






         TIME SUMMARY AT END OF TIME STEP   12 IN STRESS PERIOD    3
                    SECONDS     MINUTES      HOURS       DAYS        YEARS
                    -----------------------------------------------------------
   TIME STEP LENGTH  86400.      1440.0      24.000      1.0000     2.73785E-03
 STRESS PERIOD TIME 1.03680E+06  17280.      288.00      12.000     3.28542E-02
         TOTAL TIME 9.76320E+06 1.62720E+05  2712.0      113.00     0.30938    
1

 SOLVING FOR HEAD 

 OUTPUT CONTROL FOR STRESS PERIOD    3   TIME STEP   13
    SAVE HEAD FOR ALL LAYERS
    SAVE DRAWDOWN FOR ALL LAYERS
    SAVE BUDGET
    PRINT HEAD FOR ALL LAYERS
    PRINT BUDGET
 UBDSV1 SAVING "         STORAGE" ON UNIT  53 AT TIME STEP 13, STRESS PERIOD   3
 UBDSV2 SAVING "   CONSTANT HEAD" ON UNIT  53 AT TIME STEP 13, STRESS PERIOD   3
 UBDSV1 SAVING "FLOW RIGHT FACE " ON UNIT  53 AT TIME STEP 13, STRESS PERIOD   3
 UBDSV1 SAVING "FLOW FRONT FACE " ON UNIT  53 AT TIME STEP 13, STRESS PERIOD   3
1
              HEAD IN LAYER   1 AT END OF TIME STEP  13 IN STRESS PERIOD    3
  ---------------------------------------------------------------------------

            1           2           3           4           5           6           7           8           9          10
 ........................................................................................................................
   1    9.988       8.552       7.146       5.810       4.593       3.529       2.583       1.702      0.8504      8.4190E-03
   2    9.988       8.504       7.041       5.643       4.388       3.360       2.471       1.639      0.8229      8.1474E-03
   3    9.987       8.415       6.838       5.287       3.903       3.000       2.256       1.527      0.7759      7.6834E-03
   4    9.986       8.312       6.572       4.718       2.883       2.427       1.981       1.402      0.7278      7.2109E-03
   5    9.986       8.257       6.386       4.083      0.4323       1.791       1.792       1.340      0.7079      7.0155E-03
   6    9.986       8.325       6.596       4.750       2.919       2.462       2.011       1.424      0.7391      7.3220E-03
   7    9.987       8.443       6.890       5.358       3.982       3.076       2.321       1.573      0.8000      7.9228E-03
   8    9.988       8.552       7.133       5.766       4.525       3.492       2.582       1.718      0.8634      8.5481E-03
   9    9.989       8.629       7.292       6.008       4.816       3.741       2.756       1.822      0.9117      9.0263E-03
  10    9.989       8.667       7.369       6.120       4.945       3.857       2.842       1.876      0.9373      9.2787E-03

 HEAD WILL BE SAVED ON UNIT   51 AT END OF TIME STEP   13, STRESS PERIOD    3

 DRAWDOWN WILL BE SAVED ON UNIT   52 AT END OF TIME STEP   13, STRESS PERIOD    3
1
  VOLUMETRIC BUDGET FOR ENTIRE MODEL AT END OF TIME STEP   13, STRESS PERIOD   3
  ------------------------------------------------------------------------------

     CUMULATIVE VOLUMES      L**3       RATES FOR THIS TIME STEP      L**3/T
     ------------------                 ------------------------

           IN:                                      IN:
           ---                                      ---
             STORAGE =       28835.3672               STORAGE =         142.0694
       CONSTANT HEAD =           0.0000         CONSTANT HEAD =           0.0000
               WELLS =           0.0000                 WELLS =           0.0000
     HEAD DEP BOUNDS =       56820.5234       HEAD DEP BOUNDS =         760.7913

            TOTAL IN =       85655.8906              TOTAL IN =         902.8607

          OUT:                                     OUT:
          ----                                     ----
             STORAGE =           0.0000               STORAGE =           0.0000
       CONSTANT HEAD =           0.0000         CONSTANT HEAD =           0.0000
               WELLS =        6500.0000                 WELLS =         500.0000
     HEAD DEP BOUNDS =       79156.2109       HEAD DEP BOUNDS =         402.8707

           TOTAL OUT =       85656.2109             TOTAL OUT =         902.8707

            IN - OUT =          -0.3203              IN - OUT =      -9.9487E-03

 PERCENT DISCREPANCY =          -0.00     PERCENT DISCREPANCY =          -0.00






         TIME SUMMARY AT END OF TIME STEP   13 IN STRESS PERIOD    3
                    SECONDS     MINUTES      HOURS       DAYS        YEARS
                    -----------------------------------------------------------
   TIME STEP LENGTH  86400.      1440.0      24.000      1.0000     2.73785E-03
 STRESS PERIOD TIME 1.12320E+06  18720.      312.00      13.000     3.55921E-02
         TOTAL TIME 9.84960E+06 1.64160E+05  2736.0      114.00     0.31211    
1

 SOLVING FOR HEAD 

 OUTPUT CONTROL FOR STRESS PERIOD    3   TIME STEP   14
    SAVE HEAD FOR ALL LAYERS
    SAVE DRAWDOWN FOR ALL LAYERS
    SAVE BUDGET
    PRINT HEAD FOR ALL LAYERS
    PRINT BUDGET
 UBDSV1 SAVING "         STORAGE" ON UNIT  53 AT TIME STEP 14, STRESS PERIOD   3
 UBDSV2 SAVING "   CONSTANT HEAD" ON UNIT  53 AT TIME STEP 14, STRESS PERIOD   3
 UBDSV1 SAVING "FLOW RIGHT FACE " ON UNIT  53 AT TIME STEP 14, STRESS PERIOD   3
 UBDSV1 SAVING "FLOW FRONT FACE " ON UNIT  53 AT TIME STEP 14, STRESS PERIOD   3
1
              HEAD IN LAYER   1 AT END OF TIME STEP  14 IN STRESS PERIOD    3
  ---------------------------------------------------------------------------

            1           2           3           4           5           6           7           8           9          10
 ........................................................................................................................
   1    9.988       8.536       7.115       5.768       4.546       3.483       2.542       1.672      0.8343      8.2591E-03
   2    9.987       8.487       7.010       5.602       4.341       3.313       2.430       1.609      0.8067      7.9872E-03
   3    9.987       8.398       6.807       5.246       3.856       2.953       2.215       1.497      0.7597      7.5232E-03
   4    9.986       8.296       6.541       4.677       2.837       2.380       1.940       1.372      0.7118      7.0516E-03
   5    9.985       8.240       6.355       4.043      0.3863       1.745       1.752       1.310      0.6921      6.8589E-03
   6    9.986       8.309       6.567       4.711       2.874       2.417       1.972       1.395      0.7237      7.1700E-03
   7    9.987       8.428       6.862       5.320       3.939       3.033       2.284       1.546      0.7853      7.7767E-03
   8    9.988       8.538       7.106       5.730       4.484       3.452       2.546       1.691      0.8493      8.4084E-03
   9    9.989       8.615       7.266       5.973       4.776       3.702       2.722       1.797      0.8982      8.8919E-03
  10    9.989       8.654       7.343       6.086       4.906       3.818       2.808       1.851      0.9240      9.1472E-03

 HEAD WILL BE SAVED ON UNIT   51 AT END OF TIME STEP   14, STRESS PERIOD    3

 DRAWDOWN WILL BE SAVED ON UNIT   52 AT END OF TIME STEP   14, STRESS PERIOD    3
1
  VOLUMETRIC BUDGET FOR ENTIRE MODEL AT END OF TIME STEP   14, STRESS PERIOD   3
  ------------------------------------------------------------------------------

     CUMULATIVE VOLUMES      L**3       RATES FOR THIS TIME STEP      L**3/T
     ------------------                 ------------------------

           IN:                                      IN:
           ---                                      ---
             STORAGE =       28962.2070               STORAGE =         126.8404
       CONSTANT HEAD =           0.0000         CONSTANT HEAD =           0.0000
               WELLS =           0.0000                 WELLS =           0.0000
     HEAD DEP BOUNDS =       57589.0508       HEAD DEP BOUNDS =         768.5261

            TOTAL IN =       86551.2578              TOTAL IN =         895.3665

          OUT:                                     OUT:
          ----                                     ----
             STORAGE =           0.0000               STORAGE =           0.0000
       CONSTANT HEAD =           0.0000         CONSTANT HEAD =           0.0000
               WELLS =        7000.0000                 WELLS =         500.0000
     HEAD DEP BOUNDS =       79551.5781       HEAD DEP BOUNDS =         395.3705

           TOTAL OUT =       86551.5781             TOTAL OUT =         895.3705

            IN - OUT =          -0.3203              IN - OUT =      -3.9673E-03

 PERCENT DISCREPANCY =          -0.00     PERCENT DISCREPANCY =          -0.00






         TIME SUMMARY AT END OF TIME STEP   14 IN STRESS PERIOD    3
                    SECONDS     MINUTES      HOURS       DAYS        YEARS
                    -----------------------------------------------------------
   TIME STEP LENGTH  86400.      1440.0      24.000      1.0000     2.73785E-03
 STRESS PERIOD TIME 1.20960E+06  20160.      336.00      14.000     3.83299E-02
         TOTAL TIME 9.93600E+06 1.65600E+05  2760.0      115.00     0.31485    
1

 SOLVING FOR HEAD 

 OUTPUT CONTROL FOR STRESS PERIOD    3   TIME STEP   15
    SAVE HEAD FOR ALL LAYERS
    SAVE DRAWDOWN FOR ALL LAYERS
    SAVE BUDGET
    PRINT HEAD FOR ALL LAYERS
    PRINT BUDGET
 UBDSV1 SAVING "         STORAGE" ON UNIT  53 AT TIME STEP 15, STRESS PERIOD   3
 UBDSV2 SAVING "   CONSTANT HEAD" ON UNIT  53 AT TIME STEP 15, STRESS PERIOD   3
 UBDSV1 SAVING "FLOW RIGHT FACE " ON UNIT  53 AT TIME STEP 15, STRESS PERIOD   3
 UBDSV1 SAVING "FLOW FRONT FACE " ON UNIT  53 AT TIME STEP 15, STRESS PERIOD   3
1
              HEAD IN LAYER   1 AT END OF TIME STEP  15 IN STRESS PERIOD    3
  ---------------------------------------------------------------------------

            1           2           3           4           5           6           7           8           9          10
 ........................................................................................................................
   1    9.988       8.521       7.087       5.731       4.504       3.441       2.505       1.645      0.8198      8.1159E-03
   2    9.987       8.472       6.983       5.565       4.299       3.272       2.393       1.582      0.7923      7.8439E-03
   3    9.987       8.383       6.779       5.209       3.814       2.911       2.179       1.470      0.7453      7.3803E-03
   4    9.986       8.281       6.514       4.640       2.795       2.339       1.904       1.345      0.6975      6.9099E-03
   5    9.985       8.226       6.329       4.007      0.3455       1.705       1.716       1.284      0.6780      6.7196E-03
   6    9.986       8.295       6.541       4.676       2.835       2.378       1.937       1.369      0.7101      7.0345E-03
   7    9.987       8.414       6.837       5.286       3.901       2.995       2.250       1.521      0.7721      7.6459E-03
   8    9.988       8.525       7.081       5.697       4.448       3.415       2.514       1.667      0.8365      8.2824E-03
   9    9.988       8.602       7.242       5.942       4.741       3.666       2.691       1.774      0.8859      8.7698E-03
  10    9.989       8.641       7.320       6.055       4.871       3.783       2.778       1.829      0.9119      9.0275E-03

 HEAD WILL BE SAVED ON UNIT   51 AT END OF TIME STEP   15, STRESS PERIOD    3

 DRAWDOWN WILL BE SAVED ON UNIT   52 AT END OF TIME STEP   15, STRESS PERIOD    3
1
  VOLUMETRIC BUDGET FOR ENTIRE MODEL AT END OF TIME STEP   15, STRESS PERIOD   3
  ------------------------------------------------------------------------------

     CUMULATIVE VOLUMES      L**3       RATES FOR THIS TIME STEP      L**3/T
     ------------------                 ------------------------

           IN:                                      IN:
           ---                                      ---
             STORAGE =       29075.4473               STORAGE =         113.2405
       CONSTANT HEAD =           0.0000         CONSTANT HEAD =           0.0000
               WELLS =           0.0000                 WELLS =           0.0000
     HEAD DEP BOUNDS =       58364.4570       HEAD DEP BOUNDS =         775.4061

            TOTAL IN =       87439.9062              TOTAL IN =         888.6465

          OUT:                                     OUT:
          ----                                     ----
             STORAGE =           0.0000               STORAGE =           0.0000
       CONSTANT HEAD =           0.0000         CONSTANT HEAD =           0.0000
               WELLS =        7500.0000                 WELLS =         500.0000
     HEAD DEP BOUNDS =       79940.2266       HEAD DEP BOUNDS =         388.6485

           TOTAL OUT =       87440.2266             TOTAL OUT =         888.6486

            IN - OUT =          -0.3203              IN - OUT =      -2.0142E-03

 PERCENT DISCREPANCY =          -0.00     PERCENT DISCREPANCY =          -0.00






         TIME SUMMARY AT END OF TIME STEP   15 IN STRESS PERIOD    3
                    SECONDS     MINUTES      HOURS       DAYS        YEARS
                    -----------------------------------------------------------
   TIME STEP LENGTH  86400.      1440.0      24.000      1.0000     2.73785E-03
 STRESS PERIOD TIME 1.29600E+06  21600.      360.00      15.000     4.10678E-02
         TOTAL TIME 1.00224E+07 1.67040E+05  2784.0      116.00     0.31759    
1

 SOLVING FOR HEAD 

 OUTPUT CONTROL FOR STRESS PERIOD    3   TIME STEP   16
    SAVE HEAD FOR ALL LAYERS
    SAVE DRAWDOWN FOR ALL LAYERS
    SAVE BUDGET
    PRINT HEAD FOR ALL LAYERS
    PRINT BUDGET
 UBDSV1 SAVING "         STORAGE" ON UNIT  53 AT TIME STEP 16, STRESS PERIOD   3
 UBDSV2 SAVING "   CONSTANT HEAD" ON UNIT  53 AT TIME STEP 16, STRESS PERIOD   3
 UBDSV1 SAVING "FLOW RIGHT FACE " ON UNIT  53 AT TIME STEP 16, STRESS PERIOD   3
 UBDSV1 SAVING "FLOW FRONT FACE " ON UNIT  53 AT TIME STEP 16, STRESS PERIOD   3
1
              HEAD IN LAYER   1 AT END OF TIME STEP  16 IN STRESS PERIOD    3
  ---------------------------------------------------------------------------

            1           2           3           4           5           6           7           8           9          10
 ........................................................................................................................
   1    9.988       8.508       7.063       5.698       4.467       3.404       2.473       1.620      0.8069      7.9878E-03
   2    9.987       8.459       6.958       5.532       4.262       3.235       2.361       1.558      0.7794      7.7160E-03
   3    9.987       8.370       6.755       5.176       3.777       2.874       2.146       1.445      0.7324      7.2529E-03
   4    9.986       8.268       6.490       4.608       2.758       2.302       1.872       1.322      0.6848      6.7838E-03
   5    9.985       8.213       6.305       3.975      0.3094       1.669       1.685       1.260      0.6655      6.5958E-03
   6    9.986       8.283       6.517       4.645       2.800       2.343       1.906       1.347      0.6979      6.9137E-03
   7    9.987       8.402       6.814       5.256       3.866       2.961       2.220       1.499      0.7603      7.5288E-03
   8    9.988       8.513       7.060       5.668       4.414       3.382       2.485       1.646      0.8251      8.1690E-03
   9    9.988       8.591       7.221       5.913       4.708       3.634       2.663       1.753      0.8747      8.6594E-03
  10    9.989       8.630       7.300       6.027       4.840       3.752       2.750       1.808      0.9009      8.9187E-03

 HEAD WILL BE SAVED ON UNIT   51 AT END OF TIME STEP   16, STRESS PERIOD    3

 DRAWDOWN WILL BE SAVED ON UNIT   52 AT END OF TIME STEP   16, STRESS PERIOD    3
1
  VOLUMETRIC BUDGET FOR ENTIRE MODEL AT END OF TIME STEP   16, STRESS PERIOD   3
  ------------------------------------------------------------------------------

     CUMULATIVE VOLUMES      L**3       RATES FOR THIS TIME STEP      L**3/T
     ------------------                 ------------------------

           IN:                                      IN:
           ---                                      ---
             STORAGE =       29176.5449               STORAGE =         101.0970
       CONSTANT HEAD =           0.0000         CONSTANT HEAD =           0.0000
               WELLS =           0.0000                 WELLS =           0.0000
     HEAD DEP BOUNDS =       59145.9961       HEAD DEP BOUNDS =         781.5399

            TOTAL IN =       88322.5391              TOTAL IN =         882.6369

          OUT:                                     OUT:
          ----                                     ----
             STORAGE =           0.0000               STORAGE =           0.0000
       CONSTANT HEAD =           0.0000         CONSTANT HEAD =           0.0000
               WELLS =        8000.0000                 WELLS =         500.0000
     HEAD DEP BOUNDS =       80322.8594       HEAD DEP BOUNDS =         382.6300

           TOTAL OUT =       88322.8594             TOTAL OUT =         882.6300

            IN - OUT =          -0.3203              IN - OUT =       6.8970E-03

 PERCENT DISCREPANCY =          -0.00     PERCENT DISCREPANCY =           0.00






         TIME SUMMARY AT END OF TIME STEP   16 IN STRESS PERIOD    3
                    SECONDS     MINUTES      HOURS       DAYS        YEARS
                    -----------------------------------------------------------
   TIME STEP LENGTH  86400.      1440.0      24.000      1.0000     2.73785E-03
 STRESS PERIOD TIME 1.38240E+06  23040.      384.00      16.000     4.38056E-02
         TOTAL TIME 1.01088E+07 1.68480E+05  2808.0      117.00     0.32033    
1

 SOLVING FOR HEAD 

 OUTPUT CONTROL FOR STRESS PERIOD    3   TIME STEP   17
    SAVE HEAD FOR ALL LAYERS
    SAVE DRAWDOWN FOR ALL LAYERS
    SAVE BUDGET
    PRINT HEAD FOR ALL LAYERS
    PRINT BUDGET
 UBDSV1 SAVING "         STORAGE" ON UNIT  53 AT TIME STEP 17, STRESS PERIOD   3
 UBDSV2 SAVING "   CONSTANT HEAD" ON UNIT  53 AT TIME STEP 17, STRESS PERIOD   3
 UBDSV1 SAVING "FLOW RIGHT FACE " ON UNIT  53 AT TIME STEP 17, STRESS PERIOD   3
 UBDSV1 SAVING "FLOW FRONT FACE " ON UNIT  53 AT TIME STEP 17, STRESS PERIOD   3
1
              HEAD IN LAYER   1 AT END OF TIME STEP  17 IN STRESS PERIOD    3
  ---------------------------------------------------------------------------

            1           2           3           4           5           6           7           8           9          10
 ........................................................................................................................
   1    9.988       8.496       7.041       5.669       4.434       3.371       2.443       1.599      0.7954      7.8734E-03
   2    9.987       8.448       6.937       5.503       4.229       3.201       2.332       1.536      0.7679      7.6019E-03
   3    9.986       8.359       6.733       5.147       3.744       2.841       2.117       1.424      0.7210      7.1395E-03
   4    9.986       8.257       6.469       4.579       2.726       2.270       1.843       1.300      0.6734      6.6716E-03
   5    9.985       8.202       6.284       3.946      0.2773       1.637       1.657       1.240      0.6544      6.4855E-03
   6    9.986       8.272       6.497       4.617       2.768       2.312       1.879       1.326      0.6870      6.8060E-03
   7    9.987       8.392       6.794       5.229       3.836       2.931       2.194       1.479      0.7497      7.4240E-03
   8    9.988       8.503       7.040       5.642       4.385       3.352       2.459       1.627      0.8148      8.0670E-03
   9    9.988       8.581       7.202       5.888       4.679       3.605       2.637       1.734      0.8647      8.5598E-03
  10    9.989       8.620       7.281       6.002       4.811       3.723       2.725       1.790      0.8910      8.8203E-03

 HEAD WILL BE SAVED ON UNIT   51 AT END OF TIME STEP   17, STRESS PERIOD    3

 DRAWDOWN WILL BE SAVED ON UNIT   52 AT END OF TIME STEP   17, STRESS PERIOD    3
1
  VOLUMETRIC BUDGET FOR ENTIRE MODEL AT END OF TIME STEP   17, STRESS PERIOD   3
  ------------------------------------------------------------------------------

     CUMULATIVE VOLUMES      L**3       RATES FOR THIS TIME STEP      L**3/T
     ------------------                 ------------------------

           IN:                                      IN:
           ---                                      ---
             STORAGE =       29266.7988               STORAGE =          90.2548
       CONSTANT HEAD =           0.0000         CONSTANT HEAD =           0.0000
               WELLS =           0.0000                 WELLS =           0.0000
     HEAD DEP BOUNDS =       59932.9844       HEAD DEP BOUNDS =         786.9891

            TOTAL IN =       89199.7812              TOTAL IN =         877.2439

          OUT:                                     OUT:
          ----                                     ----
             STORAGE =           0.0000               STORAGE =           0.0000
       CONSTANT HEAD =           0.0000         CONSTANT HEAD =           0.0000
               WELLS =        8500.0000                 WELLS =         500.0000
     HEAD DEP BOUNDS =       80700.1016       HEAD DEP BOUNDS =         377.2452

           TOTAL OUT =       89200.1016             TOTAL OUT =         877.2452

            IN - OUT =          -0.3203              IN - OUT =      -1.2817E-03

 PERCENT DISCREPANCY =          -0.00     PERCENT DISCREPANCY =          -0.00






         TIME SUMMARY AT END OF TIME STEP   17 IN STRESS PERIOD    3
                    SECONDS     MINUTES      HOURS       DAYS        YEARS
                    -----------------------------------------------------------
   TIME STEP LENGTH  86400.      1440.0      24.000      1.0000     2.73785E-03
 STRESS PERIOD TIME 1.46880E+06  24480.      408.00      17.000     4.65435E-02
         TOTAL TIME 1.01952E+07 1.69920E+05  2832.0      118.00     0.32307    
1

 SOLVING FOR HEAD 

 OUTPUT CONTROL FOR STRESS PERIOD    3   TIME STEP   18
    SAVE HEAD FOR ALL LAYERS
    SAVE DRAWDOWN FOR ALL LAYERS
    SAVE BUDGET
    PRINT HEAD FOR ALL LAYERS
    PRINT BUDGET
 UBDSV1 SAVING "         STORAGE" ON UNIT  53 AT TIME STEP 18, STRESS PERIOD   3
 UBDSV2 SAVING "   CONSTANT HEAD" ON UNIT  53 AT TIME STEP 18, STRESS PERIOD   3
 UBDSV1 SAVING "FLOW RIGHT FACE " ON UNIT  53 AT TIME STEP 18, STRESS PERIOD   3
 UBDSV1 SAVING "FLOW FRONT FACE " ON UNIT  53 AT TIME STEP 18, STRESS PERIOD   3
1
              HEAD IN LAYER   1 AT END OF TIME STEP  18 IN STRESS PERIOD    3
  ---------------------------------------------------------------------------

            1           2           3           4           5           6           7           8           9          10
 ........................................................................................................................
   1    9.987       8.486       7.022       5.643       4.404       3.341       2.418       1.580      0.7851      7.7714E-03
   2    9.987       8.437       6.917       5.477       4.199       3.172       2.306       1.517      0.7576      7.5003E-03
   3    9.986       8.349       6.714       5.121       3.715       2.812       2.092       1.405      0.7108      7.0385E-03
   4    9.986       8.246       6.449       4.554       2.697       2.241       1.818       1.282      0.6634      6.5718E-03
   5    9.985       8.192       6.265       3.921      0.2488       1.608       1.632       1.221      0.6445      6.3873E-03
   6    9.986       8.262       6.479       4.592       2.740       2.284       1.854       1.308      0.6773      6.7098E-03
   7    9.987       8.382       6.777       5.205       3.809       2.904       2.170       1.461      0.7402      7.3302E-03
   8    9.988       8.493       7.023       5.619       4.358       3.326       2.436       1.609      0.8056      7.9754E-03
   9    9.988       8.572       7.185       5.865       4.653       3.579       2.614       1.717      0.8556      8.4699E-03
  10    9.989       8.611       7.264       5.979       4.785       3.698       2.702       1.773      0.8821      8.7315E-03

 HEAD WILL BE SAVED ON UNIT   51 AT END OF TIME STEP   18, STRESS PERIOD    3

 DRAWDOWN WILL BE SAVED ON UNIT   52 AT END OF TIME STEP   18, STRESS PERIOD    3
1
  VOLUMETRIC BUDGET FOR ENTIRE MODEL AT END OF TIME STEP   18, STRESS PERIOD   3
  ------------------------------------------------------------------------------

     CUMULATIVE VOLUMES      L**3       RATES FOR THIS TIME STEP      L**3/T
     ------------------                 ------------------------

           IN:                                      IN:
           ---                                      ---
             STORAGE =       29347.3750               STORAGE =          80.5753
       CONSTANT HEAD =           0.0000         CONSTANT HEAD =           0.0000
               WELLS =           0.0000                 WELLS =           0.0000
     HEAD DEP BOUNDS =       60724.8359       HEAD DEP BOUNDS =         791.8511

            TOTAL IN =       90072.2109              TOTAL IN =         872.4265

          OUT:                                     OUT:
          ----                                     ----
             STORAGE =           0.0000               STORAGE =           0.0000
       CONSTANT HEAD =           0.0000         CONSTANT HEAD =           0.0000
               WELLS =        9000.0000                 WELLS =         500.0000
     HEAD DEP BOUNDS =       81072.5312       HEAD DEP BOUNDS =         372.4300

           TOTAL OUT =       90072.5312             TOTAL OUT =         872.4299

            IN - OUT =          -0.3203              IN - OUT =      -3.4790E-03

 PERCENT DISCREPANCY =          -0.00     PERCENT DISCREPANCY =          -0.00






         TIME SUMMARY AT END OF TIME STEP   18 IN STRESS PERIOD    3
                    SECONDS     MINUTES      HOURS       DAYS        YEARS
                    -----------------------------------------------------------
   TIME STEP LENGTH  86400.      1440.0      24.000      1.0000     2.73785E-03
 STRESS PERIOD TIME 1.55520E+06  25920.      432.00      18.000     4.92813E-02
         TOTAL TIME 1.02816E+07 1.71360E+05  2856.0      119.00     0.32580    
1

 SOLVING FOR HEAD 

 OUTPUT CONTROL FOR STRESS PERIOD    3   TIME STEP   19
    SAVE HEAD FOR ALL LAYERS
    SAVE DRAWDOWN FOR ALL LAYERS
    SAVE BUDGET
    PRINT HEAD FOR ALL LAYERS
    PRINT BUDGET
 UBDSV1 SAVING "         STORAGE" ON UNIT  53 AT TIME STEP 19, STRESS PERIOD   3
 UBDSV2 SAVING "   CONSTANT HEAD" ON UNIT  53 AT TIME STEP 19, STRESS PERIOD   3
 UBDSV1 SAVING "FLOW RIGHT FACE " ON UNIT  53 AT TIME STEP 19, STRESS PERIOD   3
 UBDSV1 SAVING "FLOW FRONT FACE " ON UNIT  53 AT TIME STEP 19, STRESS PERIOD   3
1
              HEAD IN LAYER   1 AT END OF TIME STEP  19 IN STRESS PERIOD    3
  ---------------------------------------------------------------------------

            1           2           3           4           5           6           7           8           9          10
 ........................................................................................................................
   1    9.987       8.476       7.004       5.620       4.378       3.315       2.394       1.562      0.7759      7.6805E-03
   2    9.987       8.428       6.900       5.453       4.173       3.146       2.283       1.500      0.7485      7.4097E-03
   3    9.986       8.339       6.697       5.098       3.689       2.786       2.069       1.388      0.7017      6.9486E-03
   4    9.985       8.237       6.433       4.531       2.671       2.215       1.795       1.265      0.6544      6.4828E-03
   5    9.985       8.183       6.248       3.899      0.2235       1.583       1.609       1.205      0.6357      6.2997E-03
   6    9.986       8.253       6.462       4.571       2.716       2.259       1.833       1.292      0.6686      6.6240E-03
   7    9.987       8.374       6.761       5.184       3.784       2.880       2.148       1.445      0.7318      7.2462E-03
   8    9.987       8.485       7.007       5.598       4.334       3.302       2.415       1.594      0.7973      7.8932E-03
   9    9.988       8.563       7.170       5.844       4.630       3.556       2.594       1.702      0.8474      8.3891E-03
  10    9.988       8.603       7.249       5.958       4.762       3.674       2.682       1.758      0.8740      8.6514E-03

 HEAD WILL BE SAVED ON UNIT   51 AT END OF TIME STEP   19, STRESS PERIOD    3

 DRAWDOWN WILL BE SAVED ON UNIT   52 AT END OF TIME STEP   19, STRESS PERIOD    3
1
  VOLUMETRIC BUDGET FOR ENTIRE MODEL AT END OF TIME STEP   19, STRESS PERIOD   3
  ------------------------------------------------------------------------------

     CUMULATIVE VOLUMES      L**3       RATES FOR THIS TIME STEP      L**3/T
     ------------------                 ------------------------

           IN:                                      IN:
           ---                                      ---
             STORAGE =       29419.3086               STORAGE =          71.9335
       CONSTANT HEAD =           0.0000         CONSTANT HEAD =           0.0000
               WELLS =           0.0000                 WELLS =           0.0000
     HEAD DEP BOUNDS =       61521.0234       HEAD DEP BOUNDS =         796.1873

            TOTAL IN =       90940.3281              TOTAL IN =         868.1208

          OUT:                                     OUT:
          ----                                     ----
             STORAGE =           0.0000               STORAGE =           0.0000
       CONSTANT HEAD =           0.0000         CONSTANT HEAD =           0.0000
               WELLS =        9500.0000                 WELLS =         500.0000
     HEAD DEP BOUNDS =       81440.6562       HEAD DEP BOUNDS =         368.1259

           TOTAL OUT =       90940.6562             TOTAL OUT =         868.1259

            IN - OUT =          -0.3281              IN - OUT =      -5.0659E-03

 PERCENT DISCREPANCY =          -0.00     PERCENT DISCREPANCY =          -0.00






         TIME SUMMARY AT END OF TIME STEP   19 IN STRESS PERIOD    3
                    SECONDS     MINUTES      HOURS       DAYS        YEARS
                    -----------------------------------------------------------
   TIME STEP LENGTH  86400.      1440.0      24.000      1.0000     2.73785E-03
 STRESS PERIOD TIME 1.64160E+06  27360.      456.00      19.000     5.20192E-02
         TOTAL TIME 1.03680E+07 1.72800E+05  2880.0      120.00     0.32854    
1

 SOLVING FOR HEAD 

 OUTPUT CONTROL FOR STRESS PERIOD    3   TIME STEP   20
    SAVE HEAD FOR ALL LAYERS
    SAVE DRAWDOWN FOR ALL LAYERS
    SAVE BUDGET
    PRINT HEAD FOR ALL LAYERS
    PRINT BUDGET
 UBDSV1 SAVING "         STORAGE" ON UNIT  53 AT TIME STEP 20, STRESS PERIOD   3
 UBDSV2 SAVING "   CONSTANT HEAD" ON UNIT  53 AT TIME STEP 20, STRESS PERIOD   3
 UBDSV1 SAVING "FLOW RIGHT FACE " ON UNIT  53 AT TIME STEP 20, STRESS PERIOD   3
 UBDSV1 SAVING "FLOW FRONT FACE " ON UNIT  53 AT TIME STEP 20, STRESS PERIOD   3
1
              HEAD IN LAYER   1 AT END OF TIME STEP  20 IN STRESS PERIOD    3
  ---------------------------------------------------------------------------

            1           2           3           4           5           6           7           8           9          10
 ........................................................................................................................
   1    9.987       8.468       6.989       5.599       4.355       3.291       2.374       1.547      0.7677      7.5995E-03
   2    9.987       8.420       6.885       5.433       4.150       3.122       2.262       1.484      0.7403      7.3290E-03
   3    9.986       8.331       6.682       5.078       3.665       2.763       2.048       1.373      0.6936      6.8685E-03
   4    9.985       8.229       6.418       4.511       2.648       2.192       1.775       1.250      0.6464      6.4036E-03
   5    9.985       8.175       6.234       3.879      0.2009       1.561       1.590       1.190      0.6278      6.2217E-03
   6    9.986       8.246       6.448       4.551       2.693       2.237       1.813       1.277      0.6609      6.5474E-03
   7    9.986       8.366       6.746       5.165       3.763       2.858       2.129       1.431      0.7242      7.1711E-03
   8    9.987       8.478       6.993       5.579       4.313       3.281       2.396       1.580      0.7898      7.8195E-03
   9    9.988       8.556       7.156       5.826       4.609       3.535       2.575       1.688      0.8401      8.3164E-03
  10    9.988       8.596       7.235       5.940       4.741       3.654       2.664       1.744      0.8667      8.5793E-03

 HEAD WILL BE SAVED ON UNIT   51 AT END OF TIME STEP   20, STRESS PERIOD    3

 DRAWDOWN WILL BE SAVED ON UNIT   52 AT END OF TIME STEP   20, STRESS PERIOD    3
1
  VOLUMETRIC BUDGET FOR ENTIRE MODEL AT END OF TIME STEP   20, STRESS PERIOD   3
  ------------------------------------------------------------------------------

     CUMULATIVE VOLUMES      L**3       RATES FOR THIS TIME STEP      L**3/T
     ------------------                 ------------------------

           IN:                                      IN:
           ---                                      ---
             STORAGE =       29483.5273               STORAGE =          64.2185
       CONSTANT HEAD =           0.0000         CONSTANT HEAD =           0.0000
               WELLS =           0.0000                 WELLS =           0.0000
     HEAD DEP BOUNDS =       62321.0820       HEAD DEP BOUNDS =         800.0591

            TOTAL IN =       91804.6094              TOTAL IN =         864.2776

          OUT:                                     OUT:
          ----                                     ----
             STORAGE =           0.0000               STORAGE =           0.0000
       CONSTANT HEAD =           0.0000         CONSTANT HEAD =           0.0000
               WELLS =       10000.0000                 WELLS =         500.0000
     HEAD DEP BOUNDS =       81804.9375       HEAD DEP BOUNDS =         364.2797

           TOTAL OUT =       91804.9375             TOTAL OUT =         864.2797

            IN - OUT =          -0.3281              IN - OUT =      -2.1362E-03

 PERCENT DISCREPANCY =          -0.00     PERCENT DISCREPANCY =          -0.00






         TIME SUMMARY AT END OF TIME STEP   20 IN STRESS PERIOD    3
                    SECONDS     MINUTES      HOURS       DAYS        YEARS
                    -----------------------------------------------------------
   TIME STEP LENGTH  86400.      1440.0      24.000      1.0000     2.73785E-03
 STRESS PERIOD TIME 1.72800E+06  28800.      480.00      20.000     5.47570E-02
         TOTAL TIME 1.04544E+07 1.74240E+05  2904.0      121.00     0.33128    
1

 SOLVING FOR HEAD 

 OUTPUT CONTROL FOR STRESS PERIOD    3   TIME STEP   21
    SAVE HEAD FOR ALL LAYERS
    SAVE DRAWDOWN FOR ALL LAYERS
    SAVE BUDGET
    PRINT HEAD FOR ALL LAYERS
    PRINT BUDGET
 UBDSV1 SAVING "         STORAGE" ON UNIT  53 AT TIME STEP 21, STRESS PERIOD   3
 UBDSV2 SAVING "   CONSTANT HEAD" ON UNIT  53 AT TIME STEP 21, STRESS PERIOD   3
 UBDSV1 SAVING "FLOW RIGHT FACE " ON UNIT  53 AT TIME STEP 21, STRESS PERIOD   3
 UBDSV1 SAVING "FLOW FRONT FACE " ON UNIT  53 AT TIME STEP 21, STRESS PERIOD   3
1
              HEAD IN LAYER   1 AT END OF TIME STEP  21 IN STRESS PERIOD    3
  ---------------------------------------------------------------------------

            1           2           3           4           5           6           7           8           9          10
 ........................................................................................................................
   1    9.987       8.461       6.975       5.581       4.334       3.271       2.356       1.534      0.7605      7.5274E-03
   2    9.987       8.413       6.871       5.415       4.129       3.102       2.244       1.471      0.7331      7.2571E-03
   3    9.986       8.324       6.668       5.060       3.645       2.742       2.030       1.359      0.6864      6.7971E-03
   4    9.985       8.222       6.404       4.493       2.628       2.172       1.757       1.236      0.6393      6.3331E-03
   5    9.985       8.168       6.220       3.861      0.1808       1.540       1.572       1.177      0.6208      6.1522E-03
   6    9.985       8.239       6.435       4.534       2.674       2.217       1.796       1.264      0.6540      6.4790E-03
   7    9.986       8.359       6.734       5.147       3.743       2.838       2.112       1.419      0.7174      7.1039E-03
   8    9.987       8.471       6.981       5.562       4.294       3.262       2.379       1.567      0.7832      7.7534E-03
   9    9.988       8.550       7.144       5.809       4.590       3.516       2.559       1.676      0.8335      8.2511E-03
  10    9.988       8.589       7.223       5.924       4.722       3.635       2.647       1.732      0.8602      8.5145E-03

 HEAD WILL BE SAVED ON UNIT   51 AT END OF TIME STEP   21, STRESS PERIOD    3

 DRAWDOWN WILL BE SAVED ON UNIT   52 AT END OF TIME STEP   21, STRESS PERIOD    3
1
  VOLUMETRIC BUDGET FOR ENTIRE MODEL AT END OF TIME STEP   21, STRESS PERIOD   3
  ------------------------------------------------------------------------------

     CUMULATIVE VOLUMES      L**3       RATES FOR THIS TIME STEP      L**3/T
     ------------------                 ------------------------

           IN:                                      IN:
           ---                                      ---
             STORAGE =       29540.8594               STORAGE =          57.3312
       CONSTANT HEAD =           0.0000         CONSTANT HEAD =           0.0000
               WELLS =           0.0000                 WELLS =           0.0000
     HEAD DEP BOUNDS =       63124.5977       HEAD DEP BOUNDS =         803.5173

            TOTAL IN =       92665.4531              TOTAL IN =         860.8485

          OUT:                                     OUT:
          ----                                     ----
             STORAGE =           0.0000               STORAGE =           0.0000
       CONSTANT HEAD =           0.0000         CONSTANT HEAD =           0.0000
               WELLS =       10500.0000                 WELLS =         500.0000
     HEAD DEP BOUNDS =       82165.7812       HEAD DEP BOUNDS =         360.8436

           TOTAL OUT =       92665.7812             TOTAL OUT =         860.8436

            IN - OUT =          -0.3281              IN - OUT =       4.8828E-03

 PERCENT DISCREPANCY =          -0.00     PERCENT DISCREPANCY =           0.00






         TIME SUMMARY AT END OF TIME STEP   21 IN STRESS PERIOD    3
                    SECONDS     MINUTES      HOURS       DAYS        YEARS
                    -----------------------------------------------------------
   TIME STEP LENGTH  86400.      1440.0      24.000      1.0000     2.73785E-03
 STRESS PERIOD TIME 1.81440E+06  30240.      504.00      21.000     5.74949E-02
         TOTAL TIME 1.05408E+07 1.75680E+05  2928.0      122.00     0.33402    
1

 SOLVING FOR HEAD 

 OUTPUT CONTROL FOR STRESS PERIOD    3   TIME STEP   22
    SAVE HEAD FOR ALL LAYERS
    SAVE DRAWDOWN FOR ALL LAYERS
    SAVE BUDGET
    PRINT HEAD FOR ALL LAYERS
    PRINT BUDGET
 UBDSV1 SAVING "         STORAGE" ON UNIT  53 AT TIME STEP 22, STRESS PERIOD   3
 UBDSV2 SAVING "   CONSTANT HEAD" ON UNIT  53 AT TIME STEP 22, STRESS PERIOD   3
 UBDSV1 SAVING "FLOW RIGHT FACE " ON UNIT  53 AT TIME STEP 22, STRESS PERIOD   3
 UBDSV1 SAVING "FLOW FRONT FACE " ON UNIT  53 AT TIME STEP 22, STRESS PERIOD   3
1
              HEAD IN LAYER   1 AT END OF TIME STEP  22 IN STRESS PERIOD    3
  ---------------------------------------------------------------------------

            1           2           3           4           5           6           7           8           9          10
 ........................................................................................................................
   1    9.987       8.454       6.963       5.564       4.315       3.252       2.339       1.521      0.7540      7.4632E-03
   2    9.987       8.406       6.859       5.398       4.110       3.083       2.228       1.459      0.7266      7.1931E-03
   3    9.986       8.318       6.656       5.043       3.626       2.724       2.014       1.347      0.6800      6.7336E-03
   4    9.985       8.216       6.392       4.477       2.610       2.154       1.741       1.225      0.6329      6.2702E-03
   5    9.985       8.162       6.209       3.846      0.1629       1.523       1.556       1.165      0.6145      6.0901E-03
   6    9.985       8.232       6.423       4.518       2.656       2.199       1.780       1.253      0.6478      6.4179E-03
   7    9.986       8.353       6.722       5.132       3.726       2.821       2.097       1.407      0.7113      7.0438E-03
   8    9.987       8.465       6.969       5.547       4.277       3.245       2.364       1.556      0.7772      7.6941E-03
   9    9.988       8.544       7.132       5.794       4.573       3.499       2.544       1.665      0.8276      8.1926E-03
  10    9.988       8.583       7.212       5.909       4.706       3.618       2.633       1.721      0.8543      8.4563E-03

 HEAD WILL BE SAVED ON UNIT   51 AT END OF TIME STEP   22, STRESS PERIOD    3

 DRAWDOWN WILL BE SAVED ON UNIT   52 AT END OF TIME STEP   22, STRESS PERIOD    3
1
  VOLUMETRIC BUDGET FOR ENTIRE MODEL AT END OF TIME STEP   22, STRESS PERIOD   3
  ------------------------------------------------------------------------------

     CUMULATIVE VOLUMES      L**3       RATES FOR THIS TIME STEP      L**3/T
     ------------------                 ------------------------

           IN:                                      IN:
           ---                                      ---
             STORAGE =       29592.0410               STORAGE =          51.1820
       CONSTANT HEAD =           0.0000         CONSTANT HEAD =           0.0000
               WELLS =           0.0000                 WELLS =           0.0000
     HEAD DEP BOUNDS =       63931.1875       HEAD DEP BOUNDS =         806.5918

            TOTAL IN =       93523.2266              TOTAL IN =         857.7738

          OUT:                                     OUT:
          ----                                     ----
             STORAGE =           0.0000               STORAGE =           0.0000
       CONSTANT HEAD =           0.0000         CONSTANT HEAD =           0.0000
               WELLS =       11000.0000                 WELLS =         500.0000
     HEAD DEP BOUNDS =       82523.5547       HEAD DEP BOUNDS =         357.7744

           TOTAL OUT =       93523.5547             TOTAL OUT =         857.7744

            IN - OUT =          -0.3281              IN - OUT =      -6.1035E-04

 PERCENT DISCREPANCY =          -0.00     PERCENT DISCREPANCY =          -0.00






         TIME SUMMARY AT END OF TIME STEP   22 IN STRESS PERIOD    3
                    SECONDS     MINUTES      HOURS       DAYS        YEARS
                    -----------------------------------------------------------
   TIME STEP LENGTH  86400.      1440.0      24.000      1.0000     2.73785E-03
 STRESS PERIOD TIME 1.90080E+06  31680.      528.00      22.000     6.02327E-02
         TOTAL TIME 1.06272E+07 1.77120E+05  2952.0      123.00     0.33676    
1

 SOLVING FOR HEAD 

 OUTPUT CONTROL FOR STRESS PERIOD    3   TIME STEP   23
    SAVE HEAD FOR ALL LAYERS
    SAVE DRAWDOWN FOR ALL LAYERS
    SAVE BUDGET
    PRINT HEAD FOR ALL LAYERS
    PRINT BUDGET
 UBDSV1 SAVING "         STORAGE" ON UNIT  53 AT TIME STEP 23, STRESS PERIOD   3
 UBDSV2 SAVING "   CONSTANT HEAD" ON UNIT  53 AT TIME STEP 23, STRESS PERIOD   3
 UBDSV1 SAVING "FLOW RIGHT FACE " ON UNIT  53 AT TIME STEP 23, STRESS PERIOD   3
 UBDSV1 SAVING "FLOW FRONT FACE " ON UNIT  53 AT TIME STEP 23, STRESS PERIOD   3
1
              HEAD IN LAYER   1 AT END OF TIME STEP  23 IN STRESS PERIOD    3
  ---------------------------------------------------------------------------

            1           2           3           4           5           6           7           8           9          10
 ........................................................................................................................
   1    9.987       8.449       6.952       5.550       4.299       3.236       2.325       1.511      0.7482      7.4060E-03
   2    9.987       8.400       6.848       5.384       4.094       3.067       2.213       1.448      0.7209      7.1362E-03
   3    9.986       8.312       6.645       5.029       3.610       2.708       2.000       1.337      0.6743      6.6770E-03
   4    9.985       8.210       6.382       4.462       2.593       2.138       1.727       1.214      0.6273      6.2142E-03
   5    9.985       8.156       6.198       3.831      0.1469       1.507       1.542       1.155      0.6090      6.0348E-03
   6    9.985       8.227       6.413       4.504       2.640       2.184       1.766       1.243      0.6423      6.3634E-03
   7    9.986       8.348       6.712       5.118       3.710       2.806       2.083       1.397      0.7059      6.9900E-03
   8    9.987       8.459       6.959       5.533       4.262       3.229       2.351       1.546      0.7718      7.6411E-03
   9    9.988       8.538       7.123       5.781       4.558       3.484       2.531       1.655      0.8223      8.1400E-03
  10    9.988       8.578       7.202       5.895       4.690       3.603       2.619       1.711      0.8490      8.4040E-03

 HEAD WILL BE SAVED ON UNIT   51 AT END OF TIME STEP   23, STRESS PERIOD    3

 DRAWDOWN WILL BE SAVED ON UNIT   52 AT END OF TIME STEP   23, STRESS PERIOD    3
1
  VOLUMETRIC BUDGET FOR ENTIRE MODEL AT END OF TIME STEP   23, STRESS PERIOD   3
  ------------------------------------------------------------------------------

     CUMULATIVE VOLUMES      L**3       RATES FOR THIS TIME STEP      L**3/T
     ------------------                 ------------------------

           IN:                                      IN:
           ---                                      ---
             STORAGE =       29637.7344               STORAGE =          45.6924
       CONSTANT HEAD =           0.0000         CONSTANT HEAD =           0.0000
               WELLS =           0.0000                 WELLS =           0.0000
     HEAD DEP BOUNDS =       64740.5273       HEAD DEP BOUNDS =         809.3417

            TOTAL IN =       94378.2656              TOTAL IN =         855.0342

          OUT:                                     OUT:
          ----                                     ----
             STORAGE =           0.0000               STORAGE =           0.0000
       CONSTANT HEAD =           0.0000         CONSTANT HEAD =           0.0000
               WELLS =       11500.0000                 WELLS =         500.0000
     HEAD DEP BOUNDS =       82878.5859       HEAD DEP BOUNDS =         355.0332

           TOTAL OUT =       94378.5859             TOTAL OUT =         855.0332

            IN - OUT =          -0.3203              IN - OUT =       9.7656E-04

 PERCENT DISCREPANCY =          -0.00     PERCENT DISCREPANCY =           0.00






         TIME SUMMARY AT END OF TIME STEP   23 IN STRESS PERIOD    3
                    SECONDS     MINUTES      HOURS       DAYS        YEARS
                    -----------------------------------------------------------
   TIME STEP LENGTH  86400.      1440.0      24.000      1.0000     2.73785E-03
 STRESS PERIOD TIME 1.98720E+06  33120.      552.00      23.000     6.29706E-02
         TOTAL TIME 1.07136E+07 1.78560E+05  2976.0      124.00     0.33949    
1

 SOLVING FOR HEAD 

 OUTPUT CONTROL FOR STRESS PERIOD    3   TIME STEP   24
    SAVE HEAD FOR ALL LAYERS
    SAVE DRAWDOWN FOR ALL LAYERS
    SAVE BUDGET
    PRINT HEAD FOR ALL LAYERS
    PRINT BUDGET
 UBDSV1 SAVING "         STORAGE" ON UNIT  53 AT TIME STEP 24, STRESS PERIOD   3
 UBDSV2 SAVING "   CONSTANT HEAD" ON UNIT  53 AT TIME STEP 24, STRESS PERIOD   3
 UBDSV1 SAVING "FLOW RIGHT FACE " ON UNIT  53 AT TIME STEP 24, STRESS PERIOD   3
 UBDSV1 SAVING "FLOW FRONT FACE " ON UNIT  53 AT TIME STEP 24, STRESS PERIOD   3
1
              HEAD IN LAYER   1 AT END OF TIME STEP  24 IN STRESS PERIOD    3
  ---------------------------------------------------------------------------

            1           2           3           4           5           6           7           8           9          10
 ........................................................................................................................
   1    9.987       8.443       6.943       5.537       4.284       3.221       2.312       1.501      0.7431      7.3551E-03
   2    9.987       8.395       6.839       5.371       4.079       3.052       2.201       1.439      0.7158      7.0854E-03
   3    9.986       8.307       6.636       5.016       3.596       2.693       1.987       1.327      0.6692      6.6266E-03
   4    9.985       8.205       6.372       4.450       2.579       2.123       1.714       1.205      0.6223      6.1642E-03
   5    9.985       8.151       6.189       3.819      0.1326       1.492       1.530       1.145      0.6040      5.9854E-03
   6    9.985       8.222       6.404       4.492       2.626       2.170       1.754       1.233      0.6374      6.3146E-03
   7    9.986       8.343       6.703       5.106       3.696       2.792       2.071       1.388      0.7011      6.9419E-03
   8    9.987       8.455       6.950       5.521       4.248       3.216       2.339       1.537      0.7671      7.5935E-03
   9    9.988       8.534       7.114       5.769       4.544       3.470       2.519       1.646      0.8176      8.0930E-03
  10    9.988       8.573       7.193       5.884       4.677       3.589       2.607       1.702      0.8443      8.3572E-03

 HEAD WILL BE SAVED ON UNIT   51 AT END OF TIME STEP   24, STRESS PERIOD    3

 DRAWDOWN WILL BE SAVED ON UNIT   52 AT END OF TIME STEP   24, STRESS PERIOD    3
1
  VOLUMETRIC BUDGET FOR ENTIRE MODEL AT END OF TIME STEP   24, STRESS PERIOD   3
  ------------------------------------------------------------------------------

     CUMULATIVE VOLUMES      L**3       RATES FOR THIS TIME STEP      L**3/T
     ------------------                 ------------------------

           IN:                                      IN:
           ---                                      ---
             STORAGE =       29678.5254               STORAGE =          40.7918
       CONSTANT HEAD =           0.0000         CONSTANT HEAD =           0.0000
               WELLS =           0.0000                 WELLS =           0.0000
     HEAD DEP BOUNDS =       65552.3203       HEAD DEP BOUNDS =         811.7950

            TOTAL IN =       95230.8438              TOTAL IN =         852.5868

          OUT:                                     OUT:
          ----                                     ----
             STORAGE =           0.0000               STORAGE =           0.0000
       CONSTANT HEAD =           0.0000         CONSTANT HEAD =           0.0000
               WELLS =       12000.0000                 WELLS =         500.0000
     HEAD DEP BOUNDS =       83231.1719       HEAD DEP BOUNDS =         352.5852

           TOTAL OUT =       95231.1719             TOTAL OUT =         852.5852

            IN - OUT =          -0.3281              IN - OUT =       1.5869E-03

 PERCENT DISCREPANCY =          -0.00     PERCENT DISCREPANCY =           0.00






         TIME SUMMARY AT END OF TIME STEP   24 IN STRESS PERIOD    3
                    SECONDS     MINUTES      HOURS       DAYS        YEARS
                    -----------------------------------------------------------
   TIME STEP LENGTH  86400.      1440.0      24.000      1.0000     2.73785E-03
 STRESS PERIOD TIME 2.07360E+06  34560.      576.00      24.000     6.57084E-02
         TOTAL TIME 1.08000E+07 1.80000E+05  3000.0      125.00     0.34223    
1

 SOLVING FOR HEAD 

 OUTPUT CONTROL FOR STRESS PERIOD    3   TIME STEP   25
    SAVE HEAD FOR ALL LAYERS
    SAVE DRAWDOWN FOR ALL LAYERS
    SAVE BUDGET
    PRINT HEAD FOR ALL LAYERS
    PRINT BUDGET
 UBDSV1 SAVING "         STORAGE" ON UNIT  53 AT TIME STEP 25, STRESS PERIOD   3
 UBDSV2 SAVING "   CONSTANT HEAD" ON UNIT  53 AT TIME STEP 25, STRESS PERIOD   3
 UBDSV1 SAVING "FLOW RIGHT FACE " ON UNIT  53 AT TIME STEP 25, STRESS PERIOD   3
 UBDSV1 SAVING "FLOW FRONT FACE " ON UNIT  53 AT TIME STEP 25, STRESS PERIOD   3
1
              HEAD IN LAYER   1 AT END OF TIME STEP  25 IN STRESS PERIOD    3
  ---------------------------------------------------------------------------

            1           2           3           4           5           6           7           8           9          10
 ........................................................................................................................
   1    9.987       8.439       6.934       5.525       4.271       3.208       2.300       1.492      0.7385      7.3098E-03
   2    9.987       8.391       6.830       5.360       4.066       3.039       2.189       1.430      0.7112      7.0402E-03
   3    9.986       8.302       6.627       5.005       3.583       2.680       1.976       1.319      0.6647      6.5817E-03
   4    9.985       8.201       6.364       4.438       2.566       2.110       1.703       1.196      0.6178      6.1197E-03
   5    9.985       8.147       6.181       3.808      0.1199       1.480       1.518       1.137      0.5995      5.9414E-03
   6    9.985       8.218       6.396       4.481       2.614       2.157       1.743       1.225      0.6330      6.2711E-03
   7    9.986       8.338       6.695       5.095       3.684       2.779       2.060       1.380      0.6967      6.8990E-03
   8    9.987       8.450       6.942       5.511       4.236       3.203       2.328       1.529      0.7628      7.5510E-03
   9    9.988       8.529       7.106       5.758       4.532       3.458       2.508       1.638      0.8133      8.0508E-03
  10    9.988       8.569       7.185       5.873       4.665       3.577       2.597       1.694      0.8401      8.3152E-03

 HEAD WILL BE SAVED ON UNIT   51 AT END OF TIME STEP   25, STRESS PERIOD    3

 DRAWDOWN WILL BE SAVED ON UNIT   52 AT END OF TIME STEP   25, STRESS PERIOD    3
1
  VOLUMETRIC BUDGET FOR ENTIRE MODEL AT END OF TIME STEP   25, STRESS PERIOD   3
  ------------------------------------------------------------------------------

     CUMULATIVE VOLUMES      L**3       RATES FOR THIS TIME STEP      L**3/T
     ------------------                 ------------------------

           IN:                                      IN:
           ---                                      ---
             STORAGE =       29714.9414               STORAGE =          36.4165
       CONSTANT HEAD =           0.0000         CONSTANT HEAD =           0.0000
               WELLS =           0.0000                 WELLS =           0.0000
     HEAD DEP BOUNDS =       66366.3047       HEAD DEP BOUNDS =         813.9832

            TOTAL IN =       96081.2500              TOTAL IN =         850.3997

          OUT:                                     OUT:
          ----                                     ----
             STORAGE =           0.0000               STORAGE =           0.0000
       CONSTANT HEAD =           0.0000         CONSTANT HEAD =           0.0000
               WELLS =       12500.0000                 WELLS =         500.0000
     HEAD DEP BOUNDS =       83581.5703       HEAD DEP BOUNDS =         350.3993

           TOTAL OUT =       96081.5703             TOTAL OUT =         850.3993

            IN - OUT =          -0.3203              IN - OUT =       4.2725E-04

 PERCENT DISCREPANCY =          -0.00     PERCENT DISCREPANCY =           0.00






         TIME SUMMARY AT END OF TIME STEP   25 IN STRESS PERIOD    3
                    SECONDS     MINUTES      HOURS       DAYS        YEARS
                    -----------------------------------------------------------
   TIME STEP LENGTH  86400.      1440.0      24.000      1.0000     2.73785E-03
 STRESS PERIOD TIME 2.16000E+06  36000.      600.00      25.000     6.84463E-02
         TOTAL TIME 1.08864E+07 1.81440E+05  3024.0      126.00     0.34497    
1

 SOLVING FOR HEAD 

 OUTPUT CONTROL FOR STRESS PERIOD    3   TIME STEP   26
    SAVE HEAD FOR ALL LAYERS
    SAVE DRAWDOWN FOR ALL LAYERS
    SAVE BUDGET
    PRINT HEAD FOR ALL LAYERS
    PRINT BUDGET
 UBDSV1 SAVING "         STORAGE" ON UNIT  53 AT TIME STEP 26, STRESS PERIOD   3
 UBDSV2 SAVING "   CONSTANT HEAD" ON UNIT  53 AT TIME STEP 26, STRESS PERIOD   3
 UBDSV1 SAVING "FLOW RIGHT FACE " ON UNIT  53 AT TIME STEP 26, STRESS PERIOD   3
 UBDSV1 SAVING "FLOW FRONT FACE " ON UNIT  53 AT TIME STEP 26, STRESS PERIOD   3
1
              HEAD IN LAYER   1 AT END OF TIME STEP  26 IN STRESS PERIOD    3
  ---------------------------------------------------------------------------

            1           2           3           4           5           6           7           8           9          10
 ........................................................................................................................
   1    9.987       8.435       6.927       5.515       4.259       3.196       2.290       1.485      0.7344      7.2694E-03
   2    9.987       8.387       6.823       5.349       4.055       3.027       2.179       1.422      0.7071      7.0000E-03
   3    9.986       8.298       6.620       4.995       3.571       2.669       1.965       1.311      0.6607      6.5417E-03
   4    9.985       8.197       6.356       4.428       2.555       2.099       1.693       1.189      0.6138      6.0800E-03
   5    9.985       8.143       6.173       3.798      0.1086       1.468       1.508       1.130      0.5956      5.9021E-03
   6    9.985       8.214       6.388       4.471       2.602       2.146       1.733       1.218      0.6291      6.2323E-03
   7    9.986       8.335       6.688       5.086       3.673       2.768       2.050       1.373      0.6928      6.8605E-03
   8    9.987       8.447       6.935       5.501       4.225       3.192       2.318       1.522      0.7589      7.5130E-03
   9    9.988       8.525       7.099       5.748       4.521       3.447       2.498       1.631      0.8095      8.0130E-03
  10    9.988       8.565       7.178       5.863       4.654       3.566       2.587       1.687      0.8363      8.2775E-03

 HEAD WILL BE SAVED ON UNIT   51 AT END OF TIME STEP   26, STRESS PERIOD    3

 DRAWDOWN WILL BE SAVED ON UNIT   52 AT END OF TIME STEP   26, STRESS PERIOD    3
1
  VOLUMETRIC BUDGET FOR ENTIRE MODEL AT END OF TIME STEP   26, STRESS PERIOD   3
  ------------------------------------------------------------------------------

     CUMULATIVE VOLUMES      L**3       RATES FOR THIS TIME STEP      L**3/T
     ------------------                 ------------------------

           IN:                                      IN:
           ---                                      ---
             STORAGE =       29747.4531               STORAGE =          32.5111
       CONSTANT HEAD =           0.0000         CONSTANT HEAD =           0.0000
               WELLS =           0.0000                 WELLS =           0.0000
     HEAD DEP BOUNDS =       67182.2422       HEAD DEP BOUNDS =         815.9346

            TOTAL IN =       96929.6953              TOTAL IN =         848.4456

          OUT:                                     OUT:
          ----                                     ----
             STORAGE =           0.0000               STORAGE =           0.0000
       CONSTANT HEAD =           0.0000         CONSTANT HEAD =           0.0000
               WELLS =       13000.0000                 WELLS =         500.0000
     HEAD DEP BOUNDS =       83930.0156       HEAD DEP BOUNDS =         348.4474

           TOTAL OUT =       96930.0156             TOTAL OUT =         848.4474

            IN - OUT =          -0.3203              IN - OUT =      -1.8311E-03

 PERCENT DISCREPANCY =          -0.00     PERCENT DISCREPANCY =          -0.00






         TIME SUMMARY AT END OF TIME STEP   26 IN STRESS PERIOD    3
                    SECONDS     MINUTES      HOURS       DAYS        YEARS
                    -----------------------------------------------------------
   TIME STEP LENGTH  86400.      1440.0      24.000      1.0000     2.73785E-03
 STRESS PERIOD TIME 2.24640E+06  37440.      624.00      26.000     7.11841E-02
         TOTAL TIME 1.09728E+07 1.82880E+05  3048.0      127.00     0.34771    
1

 SOLVING FOR HEAD 

 OUTPUT CONTROL FOR STRESS PERIOD    3   TIME STEP   27
    SAVE HEAD FOR ALL LAYERS
    SAVE DRAWDOWN FOR ALL LAYERS
    SAVE BUDGET
    PRINT HEAD FOR ALL LAYERS
    PRINT BUDGET
 UBDSV1 SAVING "         STORAGE" ON UNIT  53 AT TIME STEP 27, STRESS PERIOD   3
 UBDSV2 SAVING "   CONSTANT HEAD" ON UNIT  53 AT TIME STEP 27, STRESS PERIOD   3
 UBDSV1 SAVING "FLOW RIGHT FACE " ON UNIT  53 AT TIME STEP 27, STRESS PERIOD   3
 UBDSV1 SAVING "FLOW FRONT FACE " ON UNIT  53 AT TIME STEP 27, STRESS PERIOD   3
1
              HEAD IN LAYER   1 AT END OF TIME STEP  27 IN STRESS PERIOD    3
  ---------------------------------------------------------------------------

            1           2           3           4           5           6           7           8           9          10
 ........................................................................................................................
   1    9.987       8.431       6.920       5.506       4.249       3.186       2.281       1.478      0.7308      7.2335E-03
   2    9.987       8.383       6.816       5.340       4.044       3.017       2.170       1.416      0.7035      6.9641E-03
   3    9.986       8.295       6.613       4.986       3.561       2.658       1.956       1.304      0.6571      6.5060E-03
   4    9.985       8.193       6.350       4.419       2.544       2.089       1.684       1.182      0.6102      6.0447E-03
   5    9.985       8.140       6.167       3.789      9.8485E-02   1.458       1.500       1.123      0.5920      5.8671E-03
   6    9.985       8.210       6.382       4.462       2.592       2.136       1.724       1.211      0.6256      6.1976E-03
   7    9.986       8.331       6.681       5.077       3.663       2.758       2.042       1.366      0.6894      6.8262E-03
   8    9.987       8.443       6.929       5.492       4.215       3.182       2.310       1.516      0.7555      7.4789E-03
   9    9.988       8.522       7.092       5.740       4.512       3.438       2.490       1.625      0.8061      7.9792E-03
  10    9.988       8.562       7.172       5.855       4.644       3.557       2.579       1.681      0.8329      8.2438E-03

 HEAD WILL BE SAVED ON UNIT   51 AT END OF TIME STEP   27, STRESS PERIOD    3

 DRAWDOWN WILL BE SAVED ON UNIT   52 AT END OF TIME STEP   27, STRESS PERIOD    3
1
  VOLUMETRIC BUDGET FOR ENTIRE MODEL AT END OF TIME STEP   27, STRESS PERIOD   3
  ------------------------------------------------------------------------------

     CUMULATIVE VOLUMES      L**3       RATES FOR THIS TIME STEP      L**3/T
     ------------------                 ------------------------

           IN:                                      IN:
           ---                                      ---
             STORAGE =       29776.4766               STORAGE =          29.0239
       CONSTANT HEAD =           0.0000         CONSTANT HEAD =           0.0000
               WELLS =           0.0000                 WELLS =           0.0000
     HEAD DEP BOUNDS =       67999.9219       HEAD DEP BOUNDS =         817.6820

            TOTAL IN =       97776.3984              TOTAL IN =         846.7059

          OUT:                                     OUT:
          ----                                     ----
             STORAGE =           0.0000               STORAGE =           0.0000
       CONSTANT HEAD =           0.0000         CONSTANT HEAD =           0.0000
               WELLS =       13500.0000                 WELLS =         500.0000
     HEAD DEP BOUNDS =       84276.7188       HEAD DEP BOUNDS =         346.7047

           TOTAL OUT =       97776.7188             TOTAL OUT =         846.7047

            IN - OUT =          -0.3203              IN - OUT =       1.2207E-03

 PERCENT DISCREPANCY =          -0.00     PERCENT DISCREPANCY =           0.00






         TIME SUMMARY AT END OF TIME STEP   27 IN STRESS PERIOD    3
                    SECONDS     MINUTES      HOURS       DAYS        YEARS
                    -----------------------------------------------------------
   TIME STEP LENGTH  86400.      1440.0      24.000      1.0000     2.73785E-03
 STRESS PERIOD TIME 2.33280E+06  38880.      648.00      27.000     7.39220E-02
         TOTAL TIME 1.10592E+07 1.84320E+05  3072.0      128.00     0.35044    
1

 SOLVING FOR HEAD 

 OUTPUT CONTROL FOR STRESS PERIOD    3   TIME STEP   28
    SAVE HEAD FOR ALL LAYERS
    SAVE DRAWDOWN FOR ALL LAYERS
    SAVE BUDGET
    PRINT HEAD FOR ALL LAYERS
    PRINT BUDGET
 UBDSV1 SAVING "         STORAGE" ON UNIT  53 AT TIME STEP 28, STRESS PERIOD   3
 UBDSV2 SAVING "   CONSTANT HEAD" ON UNIT  53 AT TIME STEP 28, STRESS PERIOD   3
 UBDSV1 SAVING "FLOW RIGHT FACE " ON UNIT  53 AT TIME STEP 28, STRESS PERIOD   3
 UBDSV1 SAVING "FLOW FRONT FACE " ON UNIT  53 AT TIME STEP 28, STRESS PERIOD   3
1
              HEAD IN LAYER   1 AT END OF TIME STEP  28 IN STRESS PERIOD    3
  ---------------------------------------------------------------------------

            1           2           3           4           5           6           7           8           9          10
 ........................................................................................................................
   1    9.987       8.428       6.914       5.498       4.240       3.176       2.273       1.472      0.7276      7.2014E-03
   2    9.987       8.380       6.810       5.332       4.035       3.008       2.162       1.410      0.7003      6.9322E-03
   3    9.986       8.291       6.607       4.978       3.552       2.649       1.948       1.298      0.6539      6.4742E-03
   4    9.985       8.190       6.344       4.411       2.535       2.080       1.676       1.176      0.6070      6.0131E-03
   5    9.985       8.136       6.161       3.781      8.9462E-02   1.449       1.492       1.117      0.5889      5.8358E-03
   6    9.985       8.207       6.376       4.454       2.583       2.127       1.716       1.206      0.6225      6.1666E-03
   7    9.986       8.328       6.675       5.069       3.654       2.749       2.034       1.360      0.6863      6.7955E-03
   8    9.987       8.440       6.923       5.484       4.206       3.174       2.302       1.510      0.7524      7.4484E-03
   9    9.988       8.519       7.086       5.732       4.503       3.429       2.482       1.619      0.8030      7.9489E-03
  10    9.988       8.559       7.166       5.847       4.636       3.548       2.571       1.675      0.8298      8.2136E-03

 HEAD WILL BE SAVED ON UNIT   51 AT END OF TIME STEP   28, STRESS PERIOD    3

 DRAWDOWN WILL BE SAVED ON UNIT   52 AT END OF TIME STEP   28, STRESS PERIOD    3
1
  VOLUMETRIC BUDGET FOR ENTIRE MODEL AT END OF TIME STEP   28, STRESS PERIOD   3
  ------------------------------------------------------------------------------

     CUMULATIVE VOLUMES      L**3       RATES FOR THIS TIME STEP      L**3/T
     ------------------                 ------------------------

           IN:                                      IN:
           ---                                      ---
             STORAGE =       29802.3887               STORAGE =          25.9112
       CONSTANT HEAD =           0.0000         CONSTANT HEAD =           0.0000
               WELLS =           0.0000                 WELLS =           0.0000
     HEAD DEP BOUNDS =       68819.1562       HEAD DEP BOUNDS =         819.2361

            TOTAL IN =       98621.5469              TOTAL IN =         845.1473

          OUT:                                     OUT:
          ----                                     ----
             STORAGE =           0.0000               STORAGE =           0.0000
       CONSTANT HEAD =           0.0000         CONSTANT HEAD =           0.0000
               WELLS =       14000.0000                 WELLS =         500.0000
     HEAD DEP BOUNDS =       84621.8672       HEAD DEP BOUNDS =         345.1487

           TOTAL OUT =       98621.8672             TOTAL OUT =         845.1487

            IN - OUT =          -0.3203              IN - OUT =      -1.3428E-03

 PERCENT DISCREPANCY =          -0.00     PERCENT DISCREPANCY =          -0.00






         TIME SUMMARY AT END OF TIME STEP   28 IN STRESS PERIOD    3
                    SECONDS     MINUTES      HOURS       DAYS        YEARS
                    -----------------------------------------------------------
   TIME STEP LENGTH  86400.      1440.0      24.000      1.0000     2.73785E-03
 STRESS PERIOD TIME 2.41920E+06  40320.      672.00      28.000     7.66598E-02
         TOTAL TIME 1.11456E+07 1.85760E+05  3096.0      129.00     0.35318    
1

 SOLVING FOR HEAD 

 OUTPUT CONTROL FOR STRESS PERIOD    3   TIME STEP   29
    SAVE HEAD FOR ALL LAYERS
    SAVE DRAWDOWN FOR ALL LAYERS
    SAVE BUDGET
    PRINT HEAD FOR ALL LAYERS
    PRINT BUDGET
 UBDSV1 SAVING "         STORAGE" ON UNIT  53 AT TIME STEP 29, STRESS PERIOD   3
 UBDSV2 SAVING "   CONSTANT HEAD" ON UNIT  53 AT TIME STEP 29, STRESS PERIOD   3
 UBDSV1 SAVING "FLOW RIGHT FACE " ON UNIT  53 AT TIME STEP 29, STRESS PERIOD   3
 UBDSV1 SAVING "FLOW FRONT FACE " ON UNIT  53 AT TIME STEP 29, STRESS PERIOD   3
1
              HEAD IN LAYER   1 AT END OF TIME STEP  29 IN STRESS PERIOD    3
  ---------------------------------------------------------------------------

            1           2           3           4           5           6           7           8           9          10
 ........................................................................................................................
   1    9.987       8.425       6.908       5.491       4.231       3.168       2.266       1.467      0.7247      7.1729E-03
   2    9.987       8.377       6.804       5.325       4.027       3.000       2.154       1.404      0.6974      6.9037E-03
   3    9.986       8.289       6.602       4.970       3.543       2.641       1.941       1.293      0.6510      6.4459E-03
   4    9.985       8.187       6.338       4.404       2.527       2.072       1.669       1.171      0.6042      5.9850E-03
   5    9.985       8.134       6.155       3.774      8.1411E-02   1.441       1.485       1.112      0.5861      5.8079E-03
   6    9.985       8.204       6.371       4.447       2.575       2.119       1.709       1.200      0.6197      6.1389E-03
   7    9.986       8.325       6.670       5.062       3.646       2.741       2.027       1.355      0.6835      6.7680E-03
   8    9.987       8.437       6.918       5.478       4.198       3.166       2.295       1.505      0.7497      7.4212E-03
   9    9.988       8.516       7.081       5.725       4.495       3.421       2.475       1.614      0.8003      7.9218E-03
  10    9.988       8.556       7.161       5.840       4.628       3.540       2.564       1.670      0.8271      8.1866E-03

 HEAD WILL BE SAVED ON UNIT   51 AT END OF TIME STEP   29, STRESS PERIOD    3

 DRAWDOWN WILL BE SAVED ON UNIT   52 AT END OF TIME STEP   29, STRESS PERIOD    3
1
  VOLUMETRIC BUDGET FOR ENTIRE MODEL AT END OF TIME STEP   29, STRESS PERIOD   3
  ------------------------------------------------------------------------------

     CUMULATIVE VOLUMES      L**3       RATES FOR THIS TIME STEP      L**3/T
     ------------------                 ------------------------

           IN:                                      IN:
           ---                                      ---
             STORAGE =       29825.5195               STORAGE =          23.1318
       CONSTANT HEAD =           0.0000         CONSTANT HEAD =           0.0000
               WELLS =           0.0000                 WELLS =           0.0000
     HEAD DEP BOUNDS =       69639.7812       HEAD DEP BOUNDS =         820.6248

            TOTAL IN =       99465.2969              TOTAL IN =         843.7566

          OUT:                                     OUT:
          ----                                     ----
             STORAGE =           0.0000               STORAGE =           0.0000
       CONSTANT HEAD =           0.0000         CONSTANT HEAD =           0.0000
               WELLS =       14500.0000                 WELLS =         500.0000
     HEAD DEP BOUNDS =       84965.6250       HEAD DEP BOUNDS =         343.7595

           TOTAL OUT =       99465.6250             TOTAL OUT =         843.7595

            IN - OUT =          -0.3281              IN - OUT =      -2.8687E-03

 PERCENT DISCREPANCY =          -0.00     PERCENT DISCREPANCY =          -0.00






         TIME SUMMARY AT END OF TIME STEP   29 IN STRESS PERIOD    3
                    SECONDS     MINUTES      HOURS       DAYS        YEARS
                    -----------------------------------------------------------
   TIME STEP LENGTH  86400.      1440.0      24.000      1.0000     2.73785E-03
 STRESS PERIOD TIME 2.50560E+06  41760.      696.00      29.000     7.93977E-02
         TOTAL TIME 1.12320E+07 1.87200E+05  3120.0      130.00     0.35592    
1

 SOLVING FOR HEAD 

 OUTPUT CONTROL FOR STRESS PERIOD    3   TIME STEP   30
    SAVE HEAD FOR ALL LAYERS
    SAVE DRAWDOWN FOR ALL LAYERS
    SAVE BUDGET
    PRINT HEAD FOR ALL LAYERS
    PRINT BUDGET
 UBDSV1 SAVING "         STORAGE" ON UNIT  53 AT TIME STEP 30, STRESS PERIOD   3
 UBDSV2 SAVING "   CONSTANT HEAD" ON UNIT  53 AT TIME STEP 30, STRESS PERIOD   3
 UBDSV1 SAVING "FLOW RIGHT FACE " ON UNIT  53 AT TIME STEP 30, STRESS PERIOD   3
 UBDSV1 SAVING "FLOW FRONT FACE " ON UNIT  53 AT TIME STEP 30, STRESS PERIOD   3
1
              HEAD IN LAYER   1 AT END OF TIME STEP  30 IN STRESS PERIOD    3
  ---------------------------------------------------------------------------

            1           2           3           4           5           6           7           8           9          10
 ........................................................................................................................
   1    9.987       8.423       6.904       5.484       4.224       3.161       2.259       1.462      0.7221      7.1475E-03
   2    9.987       8.374       6.800       5.318       4.020       2.992       2.148       1.399      0.6949      6.8784E-03
   3    9.986       8.286       6.597       4.964       3.536       2.634       1.935       1.288      0.6485      6.4207E-03
   4    9.985       8.185       6.334       4.398       2.520       2.064       1.662       1.166      0.6016      5.9599E-03
   5    9.985       8.131       6.151       3.768      7.4227E-02   1.434       1.478       1.107      0.5835      5.7830E-03
   6    9.985       8.202       6.366       4.441       2.568       2.112       1.703       1.196      0.6172      6.1142E-03
   7    9.986       8.323       6.666       5.056       3.639       2.734       2.021       1.351      0.6810      6.7435E-03
   8    9.987       8.435       6.913       5.471       4.191       3.159       2.289       1.500      0.7472      7.3968E-03
   9    9.988       8.514       7.077       5.719       4.488       3.414       2.469       1.609      0.7979      7.8975E-03
  10    9.988       8.554       7.156       5.834       4.621       3.533       2.558       1.665      0.8246      8.1624E-03

 HEAD WILL BE SAVED ON UNIT   51 AT END OF TIME STEP   30, STRESS PERIOD    3

 DRAWDOWN WILL BE SAVED ON UNIT   52 AT END OF TIME STEP   30, STRESS PERIOD    3
1
  VOLUMETRIC BUDGET FOR ENTIRE MODEL AT END OF TIME STEP   30, STRESS PERIOD   3
  ------------------------------------------------------------------------------

     CUMULATIVE VOLUMES      L**3       RATES FOR THIS TIME STEP      L**3/T
     ------------------                 ------------------------

           IN:                                      IN:
           ---                                      ---
             STORAGE =       29846.1699               STORAGE =          20.6512
       CONSTANT HEAD =           0.0000         CONSTANT HEAD =           0.0000
               WELLS =           0.0000                 WELLS =           0.0000
     HEAD DEP BOUNDS =       70461.6484       HEAD DEP BOUNDS =         821.8694

            TOTAL IN =      100307.8203              TOTAL IN =         842.5206

          OUT:                                     OUT:
          ----                                     ----
             STORAGE =           0.0000               STORAGE =           0.0000
       CONSTANT HEAD =           0.0000         CONSTANT HEAD =           0.0000
               WELLS =       15000.0000                 WELLS =         500.0000
     HEAD DEP BOUNDS =       85308.1406       HEAD DEP BOUNDS =         342.5192

           TOTAL OUT =      100308.1406             TOTAL OUT =         842.5192

            IN - OUT =          -0.3203              IN - OUT =       1.4648E-03

 PERCENT DISCREPANCY =          -0.00     PERCENT DISCREPANCY =           0.00






         TIME SUMMARY AT END OF TIME STEP   30 IN STRESS PERIOD    3
                    SECONDS     MINUTES      HOURS       DAYS        YEARS
                    -----------------------------------------------------------
   TIME STEP LENGTH  86400.      1440.0      24.000      1.0000     2.73785E-03
 STRESS PERIOD TIME 2.59200E+06  43200.      720.00      30.000     8.21355E-02
         TOTAL TIME 1.13184E+07 1.88640E+05  3144.0      131.00     0.35866    
1

 SOLVING FOR HEAD 

 OUTPUT CONTROL FOR STRESS PERIOD    3   TIME STEP   31
    SAVE HEAD FOR ALL LAYERS
    SAVE DRAWDOWN FOR ALL LAYERS
    SAVE BUDGET
    PRINT HEAD FOR ALL LAYERS
    PRINT BUDGET
 UBDSV1 SAVING "         STORAGE" ON UNIT  53 AT TIME STEP 31, STRESS PERIOD   3
 UBDSV2 SAVING "   CONSTANT HEAD" ON UNIT  53 AT TIME STEP 31, STRESS PERIOD   3
 UBDSV1 SAVING "FLOW RIGHT FACE " ON UNIT  53 AT TIME STEP 31, STRESS PERIOD   3
 UBDSV1 SAVING "FLOW FRONT FACE " ON UNIT  53 AT TIME STEP 31, STRESS PERIOD   3
1
              HEAD IN LAYER   1 AT END OF TIME STEP  31 IN STRESS PERIOD    3
  ---------------------------------------------------------------------------

            1           2           3           4           5           6           7           8           9          10
 ........................................................................................................................
   1    9.987       8.420       6.899       5.478       4.217       3.154       2.253       1.458      0.7199      7.1248E-03
   2    9.987       8.372       6.795       5.313       4.013       2.986       2.142       1.395      0.6926      6.8558E-03
   3    9.986       8.284       6.593       4.958       3.530       2.627       1.929       1.284      0.6462      6.3981E-03
   4    9.985       8.182       6.330       4.392       2.513       2.058       1.657       1.162      0.5994      5.9375E-03
   5    9.985       8.129       6.147       3.762      6.7816E-02   1.428       1.473       1.103      0.5813      5.7607E-03
   6    9.985       8.200       6.362       4.435       2.562       2.105       1.698       1.191      0.6150      6.0921E-03
   7    9.986       8.321       6.661       5.050       3.633       2.728       2.015       1.346      0.6788      6.7216E-03
   8    9.987       8.433       6.909       5.466       4.185       3.153       2.283       1.496      0.7450      7.3751E-03
   9    9.988       8.512       7.073       5.714       4.482       3.408       2.464       1.605      0.7957      7.8758E-03
  10    9.988       8.551       7.152       5.829       4.615       3.527       2.552       1.661      0.8225      8.1408E-03

 HEAD WILL BE SAVED ON UNIT   51 AT END OF TIME STEP   31, STRESS PERIOD    3

 DRAWDOWN WILL BE SAVED ON UNIT   52 AT END OF TIME STEP   31, STRESS PERIOD    3
1
  VOLUMETRIC BUDGET FOR ENTIRE MODEL AT END OF TIME STEP   31, STRESS PERIOD   3
  ------------------------------------------------------------------------------

     CUMULATIVE VOLUMES      L**3       RATES FOR THIS TIME STEP      L**3/T
     ------------------                 ------------------------

           IN:                                      IN:
           ---                                      ---
             STORAGE =       29864.6055               STORAGE =          18.4360
       CONSTANT HEAD =           0.0000         CONSTANT HEAD =           0.0000
               WELLS =           0.0000                 WELLS =           0.0000
     HEAD DEP BOUNDS =       71284.6250       HEAD DEP BOUNDS =         822.9745

            TOTAL IN =      101149.2344              TOTAL IN =         841.4105

          OUT:                                     OUT:
          ----                                     ----
             STORAGE =           0.0000               STORAGE =           0.0000
       CONSTANT HEAD =           0.0000         CONSTANT HEAD =           0.0000
               WELLS =       15500.0000                 WELLS =         500.0000
     HEAD DEP BOUNDS =       85649.5547       HEAD DEP BOUNDS =         341.4118

           TOTAL OUT =      101149.5547             TOTAL OUT =         841.4119

            IN - OUT =          -0.3203              IN - OUT =      -1.3428E-03

 PERCENT DISCREPANCY =          -0.00     PERCENT DISCREPANCY =          -0.00






         TIME SUMMARY AT END OF TIME STEP   31 IN STRESS PERIOD    3
                    SECONDS     MINUTES      HOURS       DAYS        YEARS
                    -----------------------------------------------------------
   TIME STEP LENGTH  86400.      1440.0      24.000      1.0000     2.73785E-03
 STRESS PERIOD TIME 2.67840E+06  44640.      744.00      31.000     8.48734E-02
         TOTAL TIME 1.14048E+07 1.90080E+05  3168.0      132.00     0.36140    
1

 SOLVING FOR HEAD 

 OUTPUT CONTROL FOR STRESS PERIOD    3   TIME STEP   32
    SAVE HEAD FOR ALL LAYERS
    SAVE DRAWDOWN FOR ALL LAYERS
    SAVE BUDGET
    PRINT HEAD FOR ALL LAYERS
    PRINT BUDGET
 UBDSV1 SAVING "         STORAGE" ON UNIT  53 AT TIME STEP 32, STRESS PERIOD   3
 UBDSV2 SAVING "   CONSTANT HEAD" ON UNIT  53 AT TIME STEP 32, STRESS PERIOD   3
 UBDSV1 SAVING "FLOW RIGHT FACE " ON UNIT  53 AT TIME STEP 32, STRESS PERIOD   3
 UBDSV1 SAVING "FLOW FRONT FACE " ON UNIT  53 AT TIME STEP 32, STRESS PERIOD   3
1
              HEAD IN LAYER   1 AT END OF TIME STEP  32 IN STRESS PERIOD    3
  ---------------------------------------------------------------------------

            1           2           3           4           5           6           7           8           9          10
 ........................................................................................................................
   1    9.987       8.418       6.896       5.473       4.212       3.149       2.248       1.454      0.7178      7.1046E-03
   2    9.987       8.370       6.792       5.308       4.007       2.980       2.137       1.391      0.6906      6.8356E-03
   3    9.986       8.282       6.589       4.953       3.524       2.621       1.924       1.280      0.6442      6.3781E-03
   4    9.985       8.180       6.326       4.387       2.508       2.052       1.652       1.158      0.5974      5.9175E-03
   5    9.985       8.127       6.143       3.757      6.2094E-02   1.422       1.468       1.099      0.5793      5.7409E-03
   6    9.985       8.198       6.358       4.430       2.556       2.100       1.693       1.188      0.6130      6.0724E-03
   7    9.986       8.319       6.658       5.045       3.627       2.722       2.010       1.343      0.6769      6.7020E-03
   8    9.987       8.431       6.906       5.461       4.179       3.147       2.278       1.492      0.7430      7.3556E-03
   9    9.988       8.510       7.069       5.709       4.476       3.402       2.459       1.602      0.7937      7.8565E-03
  10    9.988       8.549       7.149       5.824       4.609       3.521       2.548       1.658      0.8205      8.1214E-03

 HEAD WILL BE SAVED ON UNIT   51 AT END OF TIME STEP   32, STRESS PERIOD    3

 DRAWDOWN WILL BE SAVED ON UNIT   52 AT END OF TIME STEP   32, STRESS PERIOD    3
1
  VOLUMETRIC BUDGET FOR ENTIRE MODEL AT END OF TIME STEP   32, STRESS PERIOD   3
  ------------------------------------------------------------------------------

     CUMULATIVE VOLUMES      L**3       RATES FOR THIS TIME STEP      L**3/T
     ------------------                 ------------------------

           IN:                                      IN:
           ---                                      ---
             STORAGE =       29881.0645               STORAGE =          16.4588
       CONSTANT HEAD =           0.0000         CONSTANT HEAD =           0.0000
               WELLS =           0.0000                 WELLS =           0.0000
     HEAD DEP BOUNDS =       72108.5859       HEAD DEP BOUNDS =         823.9618

            TOTAL IN =      101989.6484              TOTAL IN =         840.4206

          OUT:                                     OUT:
          ----                                     ----
             STORAGE =           0.0000               STORAGE =           0.0000
       CONSTANT HEAD =           0.0000         CONSTANT HEAD =           0.0000
               WELLS =       16000.0000                 WELLS =         500.0000
     HEAD DEP BOUNDS =       85989.9766       HEAD DEP BOUNDS =         340.4232

           TOTAL OUT =      101989.9766             TOTAL OUT =         840.4232

            IN - OUT =          -0.3281              IN - OUT =      -2.6245E-03

 PERCENT DISCREPANCY =          -0.00     PERCENT DISCREPANCY =          -0.00






         TIME SUMMARY AT END OF TIME STEP   32 IN STRESS PERIOD    3
                    SECONDS     MINUTES      HOURS       DAYS        YEARS
                    -----------------------------------------------------------
   TIME STEP LENGTH  86400.      1440.0      24.000      1.0000     2.73785E-03
 STRESS PERIOD TIME 2.76480E+06  46080.      768.00      32.000     8.76112E-02
         TOTAL TIME 1.14912E+07 1.91520E+05  3192.0      133.00     0.36413    
1

 SOLVING FOR HEAD 

 OUTPUT CONTROL FOR STRESS PERIOD    3   TIME STEP   33
    SAVE HEAD FOR ALL LAYERS
    SAVE DRAWDOWN FOR ALL LAYERS
    SAVE BUDGET
    PRINT HEAD FOR ALL LAYERS
    PRINT BUDGET
 UBDSV1 SAVING "         STORAGE" ON UNIT  53 AT TIME STEP 33, STRESS PERIOD   3
 UBDSV2 SAVING "   CONSTANT HEAD" ON UNIT  53 AT TIME STEP 33, STRESS PERIOD   3
 UBDSV1 SAVING "FLOW RIGHT FACE " ON UNIT  53 AT TIME STEP 33, STRESS PERIOD   3
 UBDSV1 SAVING "FLOW FRONT FACE " ON UNIT  53 AT TIME STEP 33, STRESS PERIOD   3
1
              HEAD IN LAYER   1 AT END OF TIME STEP  33 IN STRESS PERIOD    3
  ---------------------------------------------------------------------------

            1           2           3           4           5           6           7           8           9          10
 ........................................................................................................................
   1    9.987       8.416       6.892       5.469       4.206       3.143       2.244       1.450      0.7160      7.0867E-03
   2    9.987       8.368       6.788       5.303       4.002       2.975       2.133       1.388      0.6888      6.8177E-03
   3    9.986       8.280       6.586       4.949       3.519       2.616       1.919       1.277      0.6424      6.3602E-03
   4    9.985       8.179       6.322       4.383       2.503       2.047       1.647       1.155      0.5956      5.8997E-03
   5    9.985       8.125       6.139       3.752      5.6988E-02   1.417       1.463       1.096      0.5775      5.7232E-03
   6    9.985       8.196       6.355       4.426       2.551       2.095       1.688       1.184      0.6112      6.0548E-03
   7    9.986       8.317       6.655       5.041       3.622       2.717       2.006       1.339      0.6751      6.6845E-03
   8    9.987       8.429       6.902       5.457       4.174       3.142       2.274       1.489      0.7413      7.3382E-03
   9    9.988       8.508       7.066       5.704       4.471       3.397       2.454       1.598      0.7920      7.8391E-03
  10    9.988       8.548       7.145       5.819       4.604       3.516       2.543       1.654      0.8188      8.1041E-03

 HEAD WILL BE SAVED ON UNIT   51 AT END OF TIME STEP   33, STRESS PERIOD    3

 DRAWDOWN WILL BE SAVED ON UNIT   52 AT END OF TIME STEP   33, STRESS PERIOD    3
1
  VOLUMETRIC BUDGET FOR ENTIRE MODEL AT END OF TIME STEP   33, STRESS PERIOD   3
  ------------------------------------------------------------------------------

     CUMULATIVE VOLUMES      L**3       RATES FOR THIS TIME STEP      L**3/T
     ------------------                 ------------------------

           IN:                                      IN:
           ---                                      ---
             STORAGE =       29895.7578               STORAGE =          14.6934
       CONSTANT HEAD =           0.0000         CONSTANT HEAD =           0.0000
               WELLS =           0.0000                 WELLS =           0.0000
     HEAD DEP BOUNDS =       72933.4297       HEAD DEP BOUNDS =         824.8441

            TOTAL IN =      102829.1875              TOTAL IN =         839.5375

          OUT:                                     OUT:
          ----                                     ----
             STORAGE =           0.0000               STORAGE =           0.0000
       CONSTANT HEAD =           0.0000         CONSTANT HEAD =           0.0000
               WELLS =       16500.0000                 WELLS =         500.0000
     HEAD DEP BOUNDS =       86329.5156       HEAD DEP BOUNDS =         339.5406

           TOTAL OUT =      102829.5156             TOTAL OUT =         839.5406

            IN - OUT =          -0.3281              IN - OUT =      -3.1738E-03

 PERCENT DISCREPANCY =          -0.00     PERCENT DISCREPANCY =          -0.00






         TIME SUMMARY AT END OF TIME STEP   33 IN STRESS PERIOD    3
                    SECONDS     MINUTES      HOURS       DAYS        YEARS
                    -----------------------------------------------------------
   TIME STEP LENGTH  86400.      1440.0      24.000      1.0000     2.73785E-03
 STRESS PERIOD TIME 2.85120E+06  47520.      792.00      33.000     9.03491E-02
         TOTAL TIME 1.15776E+07 1.92960E+05  3216.0      134.00     0.36687    
1

 SOLVING FOR HEAD 

 OUTPUT CONTROL FOR STRESS PERIOD    3   TIME STEP   34
    SAVE HEAD FOR ALL LAYERS
    SAVE DRAWDOWN FOR ALL LAYERS
    SAVE BUDGET
    PRINT HEAD FOR ALL LAYERS
    PRINT BUDGET
 UBDSV1 SAVING "         STORAGE" ON UNIT  53 AT TIME STEP 34, STRESS PERIOD   3
 UBDSV2 SAVING "   CONSTANT HEAD" ON UNIT  53 AT TIME STEP 34, STRESS PERIOD   3
 UBDSV1 SAVING "FLOW RIGHT FACE " ON UNIT  53 AT TIME STEP 34, STRESS PERIOD   3
 UBDSV1 SAVING "FLOW FRONT FACE " ON UNIT  53 AT TIME STEP 34, STRESS PERIOD   3
1
              HEAD IN LAYER   1 AT END OF TIME STEP  34 IN STRESS PERIOD    3
  ---------------------------------------------------------------------------

            1           2           3           4           5           6           7           8           9          10
 ........................................................................................................................
   1    9.987       8.415       6.889       5.465       4.202       3.139       2.240       1.447      0.7144      7.0706E-03
   2    9.986       8.367       6.785       5.299       3.997       2.970       2.129       1.385      0.6871      6.8016E-03
   3    9.986       8.278       6.583       4.945       3.514       2.612       1.915       1.274      0.6408      6.3442E-03
   4    9.985       8.177       6.319       4.379       2.498       2.042       1.643       1.152      0.5940      5.8838E-03
   5    9.984       8.123       6.137       3.748      5.2431E-02   1.412       1.459       1.093      0.5759      5.7074E-03
   6    9.985       8.194       6.352       4.422       2.547       2.090       1.684       1.181      0.6096      6.0391E-03
   7    9.986       8.315       6.652       5.037       3.618       2.713       2.002       1.336      0.6735      6.6689E-03
   8    9.987       8.427       6.899       5.453       4.170       3.137       2.270       1.486      0.7397      7.3226E-03
   9    9.988       8.506       7.063       5.700       4.467       3.393       2.450       1.595      0.7904      7.8236E-03
  10    9.988       8.546       7.142       5.815       4.600       3.512       2.539       1.652      0.8172      8.0887E-03

 HEAD WILL BE SAVED ON UNIT   51 AT END OF TIME STEP   34, STRESS PERIOD    3

 DRAWDOWN WILL BE SAVED ON UNIT   52 AT END OF TIME STEP   34, STRESS PERIOD    3
1
  VOLUMETRIC BUDGET FOR ENTIRE MODEL AT END OF TIME STEP   34, STRESS PERIOD   3
  ------------------------------------------------------------------------------

     CUMULATIVE VOLUMES      L**3       RATES FOR THIS TIME STEP      L**3/T
     ------------------                 ------------------------

           IN:                                      IN:
           ---                                      ---
             STORAGE =       29908.8750               STORAGE =          13.1177
       CONSTANT HEAD =           0.0000         CONSTANT HEAD =           0.0000
               WELLS =           0.0000                 WELLS =           0.0000
     HEAD DEP BOUNDS =       73759.0703       HEAD DEP BOUNDS =         825.6402

            TOTAL IN =      103667.9453              TOTAL IN =         838.7579

          OUT:                                     OUT:
          ----                                     ----
             STORAGE =           0.0000               STORAGE =           0.0000
       CONSTANT HEAD =           0.0000         CONSTANT HEAD =           0.0000
               WELLS =       17000.0000                 WELLS =         500.0000
     HEAD DEP BOUNDS =       86668.2656       HEAD DEP BOUNDS =         338.7527

           TOTAL OUT =      103668.2656             TOTAL OUT =         838.7527

            IN - OUT =          -0.3203              IN - OUT =       5.1880E-03

 PERCENT DISCREPANCY =          -0.00     PERCENT DISCREPANCY =           0.00






         TIME SUMMARY AT END OF TIME STEP   34 IN STRESS PERIOD    3
                    SECONDS     MINUTES      HOURS       DAYS        YEARS
                    -----------------------------------------------------------
   TIME STEP LENGTH  86400.      1440.0      24.000      1.0000     2.73785E-03
 STRESS PERIOD TIME 2.93760E+06  48960.      816.00      34.000     9.30869E-02
         TOTAL TIME 1.16640E+07 1.94400E+05  3240.0      135.00     0.36961    
1

 SOLVING FOR HEAD 

 OUTPUT CONTROL FOR STRESS PERIOD    3   TIME STEP   35
    SAVE HEAD FOR ALL LAYERS
    SAVE DRAWDOWN FOR ALL LAYERS
    SAVE BUDGET
    PRINT HEAD FOR ALL LAYERS
    PRINT BUDGET
 UBDSV1 SAVING "         STORAGE" ON UNIT  53 AT TIME STEP 35, STRESS PERIOD   3
 UBDSV2 SAVING "   CONSTANT HEAD" ON UNIT  53 AT TIME STEP 35, STRESS PERIOD   3
 UBDSV1 SAVING "FLOW RIGHT FACE " ON UNIT  53 AT TIME STEP 35, STRESS PERIOD   3
 UBDSV1 SAVING "FLOW FRONT FACE " ON UNIT  53 AT TIME STEP 35, STRESS PERIOD   3
1
              HEAD IN LAYER   1 AT END OF TIME STEP  35 IN STRESS PERIOD    3
  ---------------------------------------------------------------------------

            1           2           3           4           5           6           7           8           9          10
 ........................................................................................................................
   1    9.987       8.413       6.886       5.461       4.198       3.135       2.236       1.445      0.7129      7.0563E-03
   2    9.986       8.365       6.782       5.295       3.993       2.966       2.125       1.382      0.6857      6.7874E-03
   3    9.986       8.277       6.580       4.941       3.510       2.608       1.912       1.271      0.6393      6.3300E-03
   4    9.985       8.176       6.317       4.375       2.494       2.038       1.640       1.149      0.5925      5.8696E-03
   5    9.984       8.122       6.134       3.745      4.8363E-02   1.408       1.455       1.090      0.5745      5.6933E-03
   6    9.985       8.193       6.349       4.418       2.543       2.086       1.681       1.179      0.6082      6.0251E-03
   7    9.986       8.314       6.649       5.033       3.614       2.709       1.998       1.334      0.6721      6.6549E-03
   8    9.987       8.426       6.897       5.449       4.166       3.133       2.266       1.483      0.7383      7.3087E-03
   9    9.988       8.505       7.060       5.697       4.463       3.389       2.447       1.593      0.7890      7.8098E-03
  10    9.988       8.545       7.140       5.812       4.596       3.508       2.536       1.649      0.8158      8.0748E-03

 HEAD WILL BE SAVED ON UNIT   51 AT END OF TIME STEP   35, STRESS PERIOD    3

 DRAWDOWN WILL BE SAVED ON UNIT   52 AT END OF TIME STEP   35, STRESS PERIOD    3
1
  VOLUMETRIC BUDGET FOR ENTIRE MODEL AT END OF TIME STEP   35, STRESS PERIOD   3
  ------------------------------------------------------------------------------

     CUMULATIVE VOLUMES      L**3       RATES FOR THIS TIME STEP      L**3/T
     ------------------                 ------------------------

           IN:                                      IN:
           ---                                      ---
             STORAGE =       29920.5859               STORAGE =          11.7106
       CONSTANT HEAD =           0.0000         CONSTANT HEAD =           0.0000
               WELLS =           0.0000                 WELLS =           0.0000
     HEAD DEP BOUNDS =       74585.4062       HEAD DEP BOUNDS =         826.3372

            TOTAL IN =      104505.9922              TOTAL IN =         838.0478

          OUT:                                     OUT:
          ----                                     ----
             STORAGE =           0.0000               STORAGE =           0.0000
       CONSTANT HEAD =           0.0000         CONSTANT HEAD =           0.0000
               WELLS =       17500.0000                 WELLS =         500.0000
     HEAD DEP BOUNDS =       87006.3125       HEAD DEP BOUNDS =         338.0492

           TOTAL OUT =      104506.3125             TOTAL OUT =         838.0492

            IN - OUT =          -0.3203              IN - OUT =      -1.4038E-03

 PERCENT DISCREPANCY =          -0.00     PERCENT DISCREPANCY =          -0.00






         TIME SUMMARY AT END OF TIME STEP   35 IN STRESS PERIOD    3
                    SECONDS     MINUTES      HOURS       DAYS        YEARS
                    -----------------------------------------------------------
   TIME STEP LENGTH  86400.      1440.0      24.000      1.0000     2.73785E-03
 STRESS PERIOD TIME 3.02400E+06  50400.      840.00      35.000     9.58248E-02
         TOTAL TIME 1.17504E+07 1.95840E+05  3264.0      136.00     0.37235    
1

 SOLVING FOR HEAD 

 OUTPUT CONTROL FOR STRESS PERIOD    3   TIME STEP   36
    SAVE HEAD FOR ALL LAYERS
    SAVE DRAWDOWN FOR ALL LAYERS
    SAVE BUDGET
    PRINT HEAD FOR ALL LAYERS
    PRINT BUDGET
 UBDSV1 SAVING "         STORAGE" ON UNIT  53 AT TIME STEP 36, STRESS PERIOD   3
 UBDSV2 SAVING "   CONSTANT HEAD" ON UNIT  53 AT TIME STEP 36, STRESS PERIOD   3
 UBDSV1 SAVING "FLOW RIGHT FACE " ON UNIT  53 AT TIME STEP 36, STRESS PERIOD   3
 UBDSV1 SAVING "FLOW FRONT FACE " ON UNIT  53 AT TIME STEP 36, STRESS PERIOD   3
1
              HEAD IN LAYER   1 AT END OF TIME STEP  36 IN STRESS PERIOD    3
  ---------------------------------------------------------------------------

            1           2           3           4           5           6           7           8           9          10
 ........................................................................................................................
   1    9.987       8.412       6.884       5.458       4.194       3.131       2.233       1.442      0.7117      7.0436E-03
   2    9.986       8.364       6.780       5.292       3.990       2.962       2.122       1.380      0.6844      6.7746E-03
   3    9.986       8.276       6.578       4.938       3.506       2.604       1.909       1.269      0.6380      6.3173E-03
   4    9.985       8.174       6.314       4.372       2.490       2.035       1.636       1.147      0.5913      5.8570E-03
   5    9.984       8.121       6.131       3.742      4.4733E-02   1.404       1.452       1.088      0.5732      5.6807E-03
   6    9.985       8.192       6.347       4.415       2.539       2.082       1.677       1.176      0.6070      6.0125E-03
   7    9.986       8.313       6.647       5.030       3.610       2.705       1.995       1.331      0.6708      6.6424E-03
   8    9.987       8.425       6.894       5.446       4.162       3.130       2.263       1.481      0.7371      7.2963E-03
   9    9.988       8.504       7.058       5.694       4.459       3.385       2.444       1.590      0.7878      7.7974E-03
  10    9.988       8.543       7.137       5.809       4.592       3.504       2.533       1.647      0.8146      8.0625E-03

 HEAD WILL BE SAVED ON UNIT   51 AT END OF TIME STEP   36, STRESS PERIOD    3

 DRAWDOWN WILL BE SAVED ON UNIT   52 AT END OF TIME STEP   36, STRESS PERIOD    3
1
  VOLUMETRIC BUDGET FOR ENTIRE MODEL AT END OF TIME STEP   36, STRESS PERIOD   3
  ------------------------------------------------------------------------------

     CUMULATIVE VOLUMES      L**3       RATES FOR THIS TIME STEP      L**3/T
     ------------------                 ------------------------

           IN:                                      IN:
           ---                                      ---
             STORAGE =       29931.0410               STORAGE =          10.4547
       CONSTANT HEAD =           0.0000         CONSTANT HEAD =           0.0000
               WELLS =           0.0000                 WELLS =           0.0000
     HEAD DEP BOUNDS =       75412.3750       HEAD DEP BOUNDS =         826.9671

            TOTAL IN =      105343.4141              TOTAL IN =         837.4218

          OUT:                                     OUT:
          ----                                     ----
             STORAGE =           0.0000               STORAGE =           0.0000
       CONSTANT HEAD =           0.0000         CONSTANT HEAD =           0.0000
               WELLS =       18000.0000                 WELLS =         500.0000
     HEAD DEP BOUNDS =       87343.7344       HEAD DEP BOUNDS =         337.4212

           TOTAL OUT =      105343.7344             TOTAL OUT =         837.4212

            IN - OUT =          -0.3203              IN - OUT =       6.1035E-04

 PERCENT DISCREPANCY =          -0.00     PERCENT DISCREPANCY =           0.00






         TIME SUMMARY AT END OF TIME STEP   36 IN STRESS PERIOD    3
                    SECONDS     MINUTES      HOURS       DAYS        YEARS
                    -----------------------------------------------------------
   TIME STEP LENGTH  86400.      1440.0      24.000      1.0000     2.73785E-03
 STRESS PERIOD TIME 3.11040E+06  51840.      864.00      36.000     9.85626E-02
         TOTAL TIME 1.18368E+07 1.97280E+05  3288.0      137.00     0.37509    
1

 SOLVING FOR HEAD 

 OUTPUT CONTROL FOR STRESS PERIOD    3   TIME STEP   37
    SAVE HEAD FOR ALL LAYERS
    SAVE DRAWDOWN FOR ALL LAYERS
    SAVE BUDGET
    PRINT HEAD FOR ALL LAYERS
    PRINT BUDGET
 UBDSV1 SAVING "         STORAGE" ON UNIT  53 AT TIME STEP 37, STRESS PERIOD   3
 UBDSV2 SAVING "   CONSTANT HEAD" ON UNIT  53 AT TIME STEP 37, STRESS PERIOD   3
 UBDSV1 SAVING "FLOW RIGHT FACE " ON UNIT  53 AT TIME STEP 37, STRESS PERIOD   3
 UBDSV1 SAVING "FLOW FRONT FACE " ON UNIT  53 AT TIME STEP 37, STRESS PERIOD   3
1
              HEAD IN LAYER   1 AT END OF TIME STEP  37 IN STRESS PERIOD    3
  ---------------------------------------------------------------------------

            1           2           3           4           5           6           7           8           9          10
 ........................................................................................................................
   1    9.987       8.411       6.882       5.455       4.191       3.128       2.230       1.440      0.7105      7.0322E-03
   2    9.986       8.363       6.778       5.289       3.986       2.959       2.119       1.378      0.6833      6.7633E-03
   3    9.986       8.275       6.575       4.935       3.503       2.601       1.906       1.267      0.6369      6.3060E-03
   4    9.985       8.173       6.312       4.369       2.487       2.031       1.633       1.145      0.5901      5.8457E-03
   5    9.984       8.120       6.129       3.739      4.1492E-02   1.401       1.449       1.086      0.5721      5.6694E-03
   6    9.985       8.190       6.345       4.412       2.536       2.079       1.675       1.174      0.6058      6.0014E-03
   7    9.986       8.311       6.644       5.027       3.607       2.702       1.992       1.329      0.6697      6.6313E-03
   8    9.987       8.424       6.892       5.443       4.159       3.127       2.260       1.479      0.7359      7.2852E-03
   9    9.988       8.503       7.056       5.691       4.456       3.382       2.441       1.588      0.7866      7.7863E-03
  10    9.988       8.542       7.135       5.806       4.589       3.501       2.530       1.645      0.8134      8.0514E-03

 HEAD WILL BE SAVED ON UNIT   51 AT END OF TIME STEP   37, STRESS PERIOD    3

 DRAWDOWN WILL BE SAVED ON UNIT   52 AT END OF TIME STEP   37, STRESS PERIOD    3
1
  VOLUMETRIC BUDGET FOR ENTIRE MODEL AT END OF TIME STEP   37, STRESS PERIOD   3
  ------------------------------------------------------------------------------

     CUMULATIVE VOLUMES      L**3       RATES FOR THIS TIME STEP      L**3/T
     ------------------                 ------------------------

           IN:                                      IN:
           ---                                      ---
             STORAGE =       29940.3750               STORAGE =           9.3331
       CONSTANT HEAD =           0.0000         CONSTANT HEAD =           0.0000
               WELLS =           0.0000                 WELLS =           0.0000
     HEAD DEP BOUNDS =       76239.8984       HEAD DEP BOUNDS =         827.5264

            TOTAL IN =      106180.2734              TOTAL IN =         836.8595

          OUT:                                     OUT:
          ----                                     ----
             STORAGE =           0.0000               STORAGE =           0.0000
       CONSTANT HEAD =           0.0000         CONSTANT HEAD =           0.0000
               WELLS =       18500.0000                 WELLS =         500.0000
     HEAD DEP BOUNDS =       87680.5938       HEAD DEP BOUNDS =         336.8605

           TOTAL OUT =      106180.5938             TOTAL OUT =         836.8605

            IN - OUT =          -0.3203              IN - OUT =      -1.0376E-03

 PERCENT DISCREPANCY =          -0.00     PERCENT DISCREPANCY =          -0.00






         TIME SUMMARY AT END OF TIME STEP   37 IN STRESS PERIOD    3
                    SECONDS     MINUTES      HOURS       DAYS        YEARS
                    -----------------------------------------------------------
   TIME STEP LENGTH  86400.      1440.0      24.000      1.0000     2.73785E-03
 STRESS PERIOD TIME 3.19680E+06  53280.      888.00      37.000     0.10130    
         TOTAL TIME 1.19232E+07 1.98720E+05  3312.0      138.00     0.37782    
1

 SOLVING FOR HEAD 

 OUTPUT CONTROL FOR STRESS PERIOD    3   TIME STEP   38
    SAVE HEAD FOR ALL LAYERS
    SAVE DRAWDOWN FOR ALL LAYERS
    SAVE BUDGET
    PRINT HEAD FOR ALL LAYERS
    PRINT BUDGET
 UBDSV1 SAVING "         STORAGE" ON UNIT  53 AT TIME STEP 38, STRESS PERIOD   3
 UBDSV2 SAVING "   CONSTANT HEAD" ON UNIT  53 AT TIME STEP 38, STRESS PERIOD   3
 UBDSV1 SAVING "FLOW RIGHT FACE " ON UNIT  53 AT TIME STEP 38, STRESS PERIOD   3
 UBDSV1 SAVING "FLOW FRONT FACE " ON UNIT  53 AT TIME STEP 38, STRESS PERIOD   3
1
              HEAD IN LAYER   1 AT END OF TIME STEP  38 IN STRESS PERIOD    3
  ---------------------------------------------------------------------------

            1           2           3           4           5           6           7           8           9          10
 ........................................................................................................................
   1    9.987       8.410       6.880       5.452       4.188       3.125       2.227       1.438      0.7095      7.0221E-03
   2    9.986       8.362       6.776       5.287       3.983       2.956       2.116       1.376      0.6822      6.7532E-03
   3    9.986       8.274       6.574       4.932       3.500       2.598       1.903       1.265      0.6359      6.2958E-03
   4    9.985       8.172       6.310       4.366       2.484       2.028       1.631       1.143      0.5891      5.8356E-03
   5    9.984       8.119       6.127       3.736      3.8600E-02   1.398       1.447       1.084      0.5711      5.6594E-03
   6    9.985       8.189       6.343       4.410       2.533       2.076       1.672       1.172      0.6048      5.9914E-03
   7    9.986       8.310       6.643       5.025       3.604       2.699       1.990       1.327      0.6687      6.6213E-03
   8    9.987       8.423       6.890       5.441       4.156       3.124       2.258       1.477      0.7349      7.2753E-03
   9    9.988       8.502       7.054       5.688       4.453       3.379       2.438       1.586      0.7856      7.7764E-03
  10    9.988       8.541       7.134       5.803       4.586       3.498       2.527       1.643      0.8124      8.0415E-03

 HEAD WILL BE SAVED ON UNIT   51 AT END OF TIME STEP   38, STRESS PERIOD    3

 DRAWDOWN WILL BE SAVED ON UNIT   52 AT END OF TIME STEP   38, STRESS PERIOD    3
1
  VOLUMETRIC BUDGET FOR ENTIRE MODEL AT END OF TIME STEP   38, STRESS PERIOD   3
  ------------------------------------------------------------------------------

     CUMULATIVE VOLUMES      L**3       RATES FOR THIS TIME STEP      L**3/T
     ------------------                 ------------------------

           IN:                                      IN:
           ---                                      ---
             STORAGE =       29948.7070               STORAGE =           8.3325
       CONSTANT HEAD =           0.0000         CONSTANT HEAD =           0.0000
               WELLS =           0.0000                 WELLS =           0.0000
     HEAD DEP BOUNDS =       77067.9219       HEAD DEP BOUNDS =         828.0262

            TOTAL IN =      107016.6250              TOTAL IN =         836.3586

          OUT:                                     OUT:
          ----                                     ----
             STORAGE =           0.0000               STORAGE =           0.0000
       CONSTANT HEAD =           0.0000         CONSTANT HEAD =           0.0000
               WELLS =       19000.0000                 WELLS =         500.0000
     HEAD DEP BOUNDS =       88016.9531       HEAD DEP BOUNDS =         336.3600

           TOTAL OUT =      107016.9531             TOTAL OUT =         836.3600

            IN - OUT =          -0.3281              IN - OUT =      -1.3428E-03

 PERCENT DISCREPANCY =          -0.00     PERCENT DISCREPANCY =          -0.00






         TIME SUMMARY AT END OF TIME STEP   38 IN STRESS PERIOD    3
                    SECONDS     MINUTES      HOURS       DAYS        YEARS
                    -----------------------------------------------------------
   TIME STEP LENGTH  86400.      1440.0      24.000      1.0000     2.73785E-03
 STRESS PERIOD TIME 3.28320E+06  54720.      912.00      38.000     0.10404    
         TOTAL TIME 1.20096E+07 2.00160E+05  3336.0      139.00     0.38056    
1

 SOLVING FOR HEAD 

 OUTPUT CONTROL FOR STRESS PERIOD    3   TIME STEP   39
    SAVE HEAD FOR ALL LAYERS
    SAVE DRAWDOWN FOR ALL LAYERS
    SAVE BUDGET
    PRINT HEAD FOR ALL LAYERS
    PRINT BUDGET
 UBDSV1 SAVING "         STORAGE" ON UNIT  53 AT TIME STEP 39, STRESS PERIOD   3
 UBDSV2 SAVING "   CONSTANT HEAD" ON UNIT  53 AT TIME STEP 39, STRESS PERIOD   3
 UBDSV1 SAVING "FLOW RIGHT FACE " ON UNIT  53 AT TIME STEP 39, STRESS PERIOD   3
 UBDSV1 SAVING "FLOW FRONT FACE " ON UNIT  53 AT TIME STEP 39, STRESS PERIOD   3
1
              HEAD IN LAYER   1 AT END OF TIME STEP  39 IN STRESS PERIOD    3
  ---------------------------------------------------------------------------

            1           2           3           4           5           6           7           8           9          10
 ........................................................................................................................
   1    9.987       8.409       6.878       5.450       4.185       3.122       2.225       1.436      0.7086      7.0130E-03
   2    9.986       8.361       6.774       5.284       3.981       2.954       2.114       1.374      0.6813      6.7441E-03
   3    9.986       8.273       6.572       4.930       3.498       2.595       1.901       1.263      0.6350      6.2868E-03
   4    9.985       8.171       6.309       4.364       2.482       2.026       1.629       1.141      0.5882      5.8267E-03
   5    9.984       8.118       6.126       3.734      3.6019E-02   1.396       1.445       1.082      0.5702      5.6505E-03
   6    9.985       8.189       6.341       4.408       2.530       2.074       1.670       1.171      0.6039      5.9824E-03
   7    9.986       8.310       6.641       5.023       3.601       2.697       1.988       1.326      0.6678      6.6125E-03
   8    9.987       8.422       6.889       5.438       4.153       3.121       2.256       1.475      0.7341      7.2664E-03
   9    9.988       8.501       7.052       5.686       4.451       3.377       2.436       1.585      0.7848      7.7676E-03
  10    9.988       8.540       7.132       5.801       4.583       3.496       2.525       1.641      0.8116      8.0327E-03

 HEAD WILL BE SAVED ON UNIT   51 AT END OF TIME STEP   39, STRESS PERIOD    3

 DRAWDOWN WILL BE SAVED ON UNIT   52 AT END OF TIME STEP   39, STRESS PERIOD    3
1
  VOLUMETRIC BUDGET FOR ENTIRE MODEL AT END OF TIME STEP   39, STRESS PERIOD   3
  ------------------------------------------------------------------------------

     CUMULATIVE VOLUMES      L**3       RATES FOR THIS TIME STEP      L**3/T
     ------------------                 ------------------------

           IN:                                      IN:
           ---                                      ---
             STORAGE =       29956.1465               STORAGE =           7.4388
       CONSTANT HEAD =           0.0000         CONSTANT HEAD =           0.0000
               WELLS =           0.0000                 WELLS =           0.0000
     HEAD DEP BOUNDS =       77896.3984       HEAD DEP BOUNDS =         828.4728

            TOTAL IN =      107852.5469              TOTAL IN =         835.9116

          OUT:                                     OUT:
          ----                                     ----
             STORAGE =           0.0000               STORAGE =           0.0000
       CONSTANT HEAD =           0.0000         CONSTANT HEAD =           0.0000
               WELLS =       19500.0000                 WELLS =         500.0000
     HEAD DEP BOUNDS =       88352.8672       HEAD DEP BOUNDS =         335.9132

           TOTAL OUT =      107852.8672             TOTAL OUT =         835.9132

            IN - OUT =          -0.3203              IN - OUT =      -1.6479E-03

 PERCENT DISCREPANCY =          -0.00     PERCENT DISCREPANCY =          -0.00






         TIME SUMMARY AT END OF TIME STEP   39 IN STRESS PERIOD    3
                    SECONDS     MINUTES      HOURS       DAYS        YEARS
                    -----------------------------------------------------------
   TIME STEP LENGTH  86400.      1440.0      24.000      1.0000     2.73785E-03
 STRESS PERIOD TIME 3.36960E+06  56160.      936.00      39.000     0.10678    
         TOTAL TIME 1.20960E+07 2.01600E+05  3360.0      140.00     0.38330    
1

 SOLVING FOR HEAD 

 OUTPUT CONTROL FOR STRESS PERIOD    3   TIME STEP   40
    SAVE HEAD FOR ALL LAYERS
    SAVE DRAWDOWN FOR ALL LAYERS
    SAVE BUDGET
    PRINT HEAD FOR ALL LAYERS
    PRINT BUDGET
 UBDSV1 SAVING "         STORAGE" ON UNIT  53 AT TIME STEP 40, STRESS PERIOD   3
 UBDSV2 SAVING "   CONSTANT HEAD" ON UNIT  53 AT TIME STEP 40, STRESS PERIOD   3
 UBDSV1 SAVING "FLOW RIGHT FACE " ON UNIT  53 AT TIME STEP 40, STRESS PERIOD   3
 UBDSV1 SAVING "FLOW FRONT FACE " ON UNIT  53 AT TIME STEP 40, STRESS PERIOD   3
1
              HEAD IN LAYER   1 AT END OF TIME STEP  40 IN STRESS PERIOD    3
  ---------------------------------------------------------------------------

            1           2           3           4           5           6           7           8           9          10
 ........................................................................................................................
   1    9.987       8.408       6.877       5.448       4.183       3.120       2.223       1.435      0.7078      7.0050E-03
   2    9.986       8.360       6.773       5.282       3.979       2.951       2.112       1.373      0.6805      6.7361E-03
   3    9.986       8.272       6.570       4.928       3.495       2.593       1.899       1.262      0.6342      6.2788E-03
   4    9.985       8.170       6.307       4.362       2.479       2.024       1.627       1.139      0.5874      5.8186E-03
   5    9.984       8.117       6.124       3.732      3.3714E-02   1.393       1.443       1.081      0.5694      5.6425E-03
   6    9.985       8.188       6.340       4.406       2.528       2.071       1.668       1.169      0.6031      5.9745E-03
   7    9.986       8.309       6.639       5.021       3.599       2.694       1.985       1.324      0.6670      6.6045E-03
   8    9.987       8.421       6.887       5.436       4.151       3.119       2.254       1.474      0.7333      7.2585E-03
   9    9.988       8.500       7.051       5.684       4.448       3.374       2.434       1.583      0.7840      7.7597E-03
  10    9.988       8.540       7.130       5.799       4.581       3.494       2.523       1.640      0.8108      8.0248E-03

 HEAD WILL BE SAVED ON UNIT   51 AT END OF TIME STEP   40, STRESS PERIOD    3

 DRAWDOWN WILL BE SAVED ON UNIT   52 AT END OF TIME STEP   40, STRESS PERIOD    3
1
  VOLUMETRIC BUDGET FOR ENTIRE MODEL AT END OF TIME STEP   40, STRESS PERIOD   3
  ------------------------------------------------------------------------------

     CUMULATIVE VOLUMES      L**3       RATES FOR THIS TIME STEP      L**3/T
     ------------------                 ------------------------

           IN:                                      IN:
           ---                                      ---
             STORAGE =       29962.7871               STORAGE =           6.6407
       CONSTANT HEAD =           0.0000         CONSTANT HEAD =           0.0000
               WELLS =           0.0000                 WELLS =           0.0000
     HEAD DEP BOUNDS =       78725.2734       HEAD DEP BOUNDS =         828.8718

            TOTAL IN =      108688.0625              TOTAL IN =         835.5125

          OUT:                                     OUT:
          ----                                     ----
             STORAGE =           0.0000               STORAGE =           0.0000
       CONSTANT HEAD =           0.0000         CONSTANT HEAD =           0.0000
               WELLS =       20000.0000                 WELLS =         500.0000
     HEAD DEP BOUNDS =       88688.3828       HEAD DEP BOUNDS =         335.5143

           TOTAL OUT =      108688.3828             TOTAL OUT =         835.5143

            IN - OUT =          -0.3203              IN - OUT =      -1.7700E-03

 PERCENT DISCREPANCY =          -0.00     PERCENT DISCREPANCY =          -0.00






         TIME SUMMARY AT END OF TIME STEP   40 IN STRESS PERIOD    3
                    SECONDS     MINUTES      HOURS       DAYS        YEARS
                    -----------------------------------------------------------
   TIME STEP LENGTH  86400.      1440.0      24.000      1.0000     2.73785E-03
 STRESS PERIOD TIME 3.45600E+06  57600.      960.00      40.000     0.10951    
         TOTAL TIME 1.21824E+07 2.03040E+05  3384.0      141.00     0.38604    
1

 SOLVING FOR HEAD 

 OUTPUT CONTROL FOR STRESS PERIOD    3   TIME STEP   41
    SAVE HEAD FOR ALL LAYERS
    SAVE DRAWDOWN FOR ALL LAYERS
    SAVE BUDGET
    PRINT HEAD FOR ALL LAYERS
    PRINT BUDGET
 UBDSV1 SAVING "         STORAGE" ON UNIT  53 AT TIME STEP 41, STRESS PERIOD   3
 UBDSV2 SAVING "   CONSTANT HEAD" ON UNIT  53 AT TIME STEP 41, STRESS PERIOD   3
 UBDSV1 SAVING "FLOW RIGHT FACE " ON UNIT  53 AT TIME STEP 41, STRESS PERIOD   3
 UBDSV1 SAVING "FLOW FRONT FACE " ON UNIT  53 AT TIME STEP 41, STRESS PERIOD   3
1
              HEAD IN LAYER   1 AT END OF TIME STEP  41 IN STRESS PERIOD    3
  ---------------------------------------------------------------------------

            1           2           3           4           5           6           7           8           9          10
 ........................................................................................................................
   1    9.987       8.407       6.875       5.446       4.181       3.118       2.221       1.434      0.7070      6.9978E-03
   2    9.986       8.359       6.771       5.281       3.976       2.949       2.110       1.371      0.6798      6.7289E-03
   3    9.986       8.271       6.569       4.926       3.493       2.591       1.897       1.260      0.6334      6.2716E-03
   4    9.985       8.170       6.306       4.360       2.477       2.022       1.625       1.138      0.5867      5.8115E-03
   5    9.984       8.116       6.123       3.730      3.1657E-02   1.391       1.441       1.079      0.5687      5.6353E-03
   6    9.985       8.187       6.338       4.404       2.526       2.069       1.666       1.168      0.6024      5.9674E-03
   7    9.986       8.308       6.638       5.019       3.597       2.692       1.984       1.323      0.6663      6.5974E-03
   8    9.987       8.420       6.886       5.435       4.149       3.117       2.252       1.473      0.7325      7.2514E-03
   9    9.988       8.499       7.049       5.682       4.446       3.372       2.432       1.582      0.7832      7.7526E-03
  10    9.988       8.539       7.129       5.797       4.579       3.492       2.521       1.638      0.8100      8.0177E-03

 HEAD WILL BE SAVED ON UNIT   51 AT END OF TIME STEP   41, STRESS PERIOD    3

 DRAWDOWN WILL BE SAVED ON UNIT   52 AT END OF TIME STEP   41, STRESS PERIOD    3
1
  VOLUMETRIC BUDGET FOR ENTIRE MODEL AT END OF TIME STEP   41, STRESS PERIOD   3
  ------------------------------------------------------------------------------

     CUMULATIVE VOLUMES      L**3       RATES FOR THIS TIME STEP      L**3/T
     ------------------                 ------------------------

           IN:                                      IN:
           ---                                      ---
             STORAGE =       29968.7148               STORAGE =           5.9286
       CONSTANT HEAD =           0.0000         CONSTANT HEAD =           0.0000
               WELLS =           0.0000                 WELLS =           0.0000
     HEAD DEP BOUNDS =       79554.5078       HEAD DEP BOUNDS =         829.2362

            TOTAL IN =      109523.2188              TOTAL IN =         835.1649

          OUT:                                     OUT:
          ----                                     ----
             STORAGE =           0.0000               STORAGE =           0.0000
       CONSTANT HEAD =           0.0000         CONSTANT HEAD =           0.0000
               WELLS =       20500.0000                 WELLS =         500.0000
     HEAD DEP BOUNDS =       89023.5391       HEAD DEP BOUNDS =         335.1581

           TOTAL OUT =      109523.5391             TOTAL OUT =         835.1581

            IN - OUT =          -0.3203              IN - OUT =       6.7749E-03

 PERCENT DISCREPANCY =          -0.00     PERCENT DISCREPANCY =           0.00






         TIME SUMMARY AT END OF TIME STEP   41 IN STRESS PERIOD    3
                    SECONDS     MINUTES      HOURS       DAYS        YEARS
                    -----------------------------------------------------------
   TIME STEP LENGTH  86400.      1440.0      24.000      1.0000     2.73785E-03
 STRESS PERIOD TIME 3.54240E+06  59040.      984.00      41.000     0.11225    
         TOTAL TIME 1.22688E+07 2.04480E+05  3408.0      142.00     0.38877    
1

 SOLVING FOR HEAD 

 OUTPUT CONTROL FOR STRESS PERIOD    3   TIME STEP   42
    SAVE HEAD FOR ALL LAYERS
    SAVE DRAWDOWN FOR ALL LAYERS
    SAVE BUDGET
    PRINT HEAD FOR ALL LAYERS
    PRINT BUDGET
 UBDSV1 SAVING "         STORAGE" ON UNIT  53 AT TIME STEP 42, STRESS PERIOD   3
 UBDSV2 SAVING "   CONSTANT HEAD" ON UNIT  53 AT TIME STEP 42, STRESS PERIOD   3
 UBDSV1 SAVING "FLOW RIGHT FACE " ON UNIT  53 AT TIME STEP 42, STRESS PERIOD   3
 UBDSV1 SAVING "FLOW FRONT FACE " ON UNIT  53 AT TIME STEP 42, STRESS PERIOD   3
1
              HEAD IN LAYER   1 AT END OF TIME STEP  42 IN STRESS PERIOD    3
  ---------------------------------------------------------------------------

            1           2           3           4           5           6           7           8           9          10
 ........................................................................................................................
   1    9.987       8.407       6.874       5.445       4.179       3.116       2.219       1.432      0.7064      6.9913E-03
   2    9.986       8.359       6.770       5.279       3.975       2.947       2.108       1.370      0.6792      6.7225E-03
   3    9.986       8.270       6.568       4.925       3.491       2.589       1.895       1.259      0.6328      6.2652E-03
   4    9.985       8.169       6.305       4.359       2.475       2.020       1.623       1.137      0.5860      5.8051E-03
   5    9.984       8.116       6.122       3.728      2.9821E-02   1.390       1.439       1.078      0.5680      5.6290E-03
   6    9.985       8.186       6.337       4.402       2.524       2.068       1.664       1.167      0.6018      5.9610E-03
   7    9.986       8.307       6.637       5.017       3.595       2.690       1.982       1.322      0.6657      6.5911E-03
   8    9.987       8.420       6.885       5.433       4.147       3.115       2.250       1.471      0.7319      7.2451E-03
   9    9.988       8.499       7.048       5.681       4.444       3.370       2.431       1.581      0.7826      7.7463E-03
  10    9.988       8.538       7.128       5.796       4.577       3.490       2.520       1.637      0.8094      8.0114E-03

 HEAD WILL BE SAVED ON UNIT   51 AT END OF TIME STEP   42, STRESS PERIOD    3

 DRAWDOWN WILL BE SAVED ON UNIT   52 AT END OF TIME STEP   42, STRESS PERIOD    3
1
  VOLUMETRIC BUDGET FOR ENTIRE MODEL AT END OF TIME STEP   42, STRESS PERIOD   3
  ------------------------------------------------------------------------------

     CUMULATIVE VOLUMES      L**3       RATES FOR THIS TIME STEP      L**3/T
     ------------------                 ------------------------

           IN:                                      IN:
           ---                                      ---
             STORAGE =       29974.0078               STORAGE =           5.2926
       CONSTANT HEAD =           0.0000         CONSTANT HEAD =           0.0000
               WELLS =           0.0000                 WELLS =           0.0000
     HEAD DEP BOUNDS =       80384.0625       HEAD DEP BOUNDS =         829.5551

            TOTAL IN =      110358.0703              TOTAL IN =         834.8478

          OUT:                                     OUT:
          ----                                     ----
             STORAGE =           0.0000               STORAGE =           0.0000
       CONSTANT HEAD =           0.0000         CONSTANT HEAD =           0.0000
               WELLS =       21000.0000                 WELLS =         500.0000
     HEAD DEP BOUNDS =       89358.3828       HEAD DEP BOUNDS =         334.8401

           TOTAL OUT =      110358.3828             TOTAL OUT =         834.8401

            IN - OUT =          -0.3125              IN - OUT =       7.6294E-03

 PERCENT DISCREPANCY =          -0.00     PERCENT DISCREPANCY =           0.00






         TIME SUMMARY AT END OF TIME STEP   42 IN STRESS PERIOD    3
                    SECONDS     MINUTES      HOURS       DAYS        YEARS
                    -----------------------------------------------------------
   TIME STEP LENGTH  86400.      1440.0      24.000      1.0000     2.73785E-03
 STRESS PERIOD TIME 3.62880E+06  60480.      1008.0      42.000     0.11499    
         TOTAL TIME 1.23552E+07 2.05920E+05  3432.0      143.00     0.39151    
1

 SOLVING FOR HEAD 

 OUTPUT CONTROL FOR STRESS PERIOD    3   TIME STEP   43
    SAVE HEAD FOR ALL LAYERS
    SAVE DRAWDOWN FOR ALL LAYERS
    SAVE BUDGET
    PRINT HEAD FOR ALL LAYERS
    PRINT BUDGET
 UBDSV1 SAVING "         STORAGE" ON UNIT  53 AT TIME STEP 43, STRESS PERIOD   3
 UBDSV2 SAVING "   CONSTANT HEAD" ON UNIT  53 AT TIME STEP 43, STRESS PERIOD   3
 UBDSV1 SAVING "FLOW RIGHT FACE " ON UNIT  53 AT TIME STEP 43, STRESS PERIOD   3
 UBDSV1 SAVING "FLOW FRONT FACE " ON UNIT  53 AT TIME STEP 43, STRESS PERIOD   3
1
              HEAD IN LAYER   1 AT END OF TIME STEP  43 IN STRESS PERIOD    3
  ---------------------------------------------------------------------------

            1           2           3           4           5           6           7           8           9          10
 ........................................................................................................................
   1    9.987       8.406       6.873       5.443       4.177       3.114       2.218       1.431      0.7058      6.9856E-03
   2    9.986       8.358       6.769       5.277       3.973       2.946       2.107       1.369      0.6786      6.7167E-03
   3    9.986       8.270       6.567       4.923       3.490       2.587       1.894       1.258      0.6322      6.2595E-03
   4    9.985       8.168       6.304       4.357       2.474       2.018       1.622       1.136      0.5854      5.7994E-03
   5    9.984       8.115       6.121       3.727      2.8182E-02   1.388       1.438       1.077      0.5674      5.6233E-03
   6    9.985       8.186       6.336       4.401       2.523       2.066       1.663       1.166      0.6012      5.9554E-03
   7    9.986       8.307       6.636       5.016       3.594       2.689       1.981       1.321      0.6651      6.5854E-03
   8    9.987       8.419       6.884       5.431       4.146       3.113       2.249       1.470      0.7313      7.2395E-03
   9    9.988       8.498       7.047       5.679       4.443       3.369       2.429       1.580      0.7820      7.7407E-03
  10    9.988       8.538       7.127       5.794       4.576       3.488       2.518       1.636      0.8088      8.0058E-03

 HEAD WILL BE SAVED ON UNIT   51 AT END OF TIME STEP   43, STRESS PERIOD    3

 DRAWDOWN WILL BE SAVED ON UNIT   52 AT END OF TIME STEP   43, STRESS PERIOD    3
1
  VOLUMETRIC BUDGET FOR ENTIRE MODEL AT END OF TIME STEP   43, STRESS PERIOD   3
  ------------------------------------------------------------------------------

     CUMULATIVE VOLUMES      L**3       RATES FOR THIS TIME STEP      L**3/T
     ------------------                 ------------------------

           IN:                                      IN:
           ---                                      ---
             STORAGE =       29978.7324               STORAGE =           4.7249
       CONSTANT HEAD =           0.0000         CONSTANT HEAD =           0.0000
               WELLS =           0.0000                 WELLS =           0.0000
     HEAD DEP BOUNDS =       81213.8984       HEAD DEP BOUNDS =         829.8363

            TOTAL IN =      111192.6328              TOTAL IN =         834.5612

          OUT:                                     OUT:
          ----                                     ----
             STORAGE =           0.0000               STORAGE =           0.0000
       CONSTANT HEAD =           0.0000         CONSTANT HEAD =           0.0000
               WELLS =       21500.0000                 WELLS =         500.0000
     HEAD DEP BOUNDS =       89692.9375       HEAD DEP BOUNDS =         334.5563

           TOTAL OUT =      111192.9375             TOTAL OUT =         834.5563

            IN - OUT =          -0.3047              IN - OUT =       4.9438E-03

 PERCENT DISCREPANCY =          -0.00     PERCENT DISCREPANCY =           0.00






         TIME SUMMARY AT END OF TIME STEP   43 IN STRESS PERIOD    3
                    SECONDS     MINUTES      HOURS       DAYS        YEARS
                    -----------------------------------------------------------
   TIME STEP LENGTH  86400.      1440.0      24.000      1.0000     2.73785E-03
 STRESS PERIOD TIME 3.71520E+06  61920.      1032.0      43.000     0.11773    
         TOTAL TIME 1.24416E+07 2.07360E+05  3456.0      144.00     0.39425    
1

 SOLVING FOR HEAD 

 OUTPUT CONTROL FOR STRESS PERIOD    3   TIME STEP   44
    SAVE HEAD FOR ALL LAYERS
    SAVE DRAWDOWN FOR ALL LAYERS
    SAVE BUDGET
    PRINT HEAD FOR ALL LAYERS
    PRINT BUDGET
 UBDSV1 SAVING "         STORAGE" ON UNIT  53 AT TIME STEP 44, STRESS PERIOD   3
 UBDSV2 SAVING "   CONSTANT HEAD" ON UNIT  53 AT TIME STEP 44, STRESS PERIOD   3
 UBDSV1 SAVING "FLOW RIGHT FACE " ON UNIT  53 AT TIME STEP 44, STRESS PERIOD   3
 UBDSV1 SAVING "FLOW FRONT FACE " ON UNIT  53 AT TIME STEP 44, STRESS PERIOD   3
1
              HEAD IN LAYER   1 AT END OF TIME STEP  44 IN STRESS PERIOD    3
  ---------------------------------------------------------------------------

            1           2           3           4           5           6           7           8           9          10
 ........................................................................................................................
   1    9.987       8.406       6.872       5.442       4.176       3.113       2.217       1.430      0.7053      6.9805E-03
   2    9.986       8.358       6.768       5.276       3.971       2.944       2.106       1.368      0.6781      6.7116E-03
   3    9.986       8.269       6.566       4.922       3.488       2.586       1.893       1.257      0.6317      6.2544E-03
   4    9.985       8.168       6.303       4.356       2.472       2.017       1.620       1.135      0.5849      5.7943E-03
   5    9.984       8.114       6.120       3.726      2.6719E-02   1.386       1.436       1.076      0.5669      5.6182E-03
   6    9.985       8.185       6.335       4.399       2.521       2.064       1.662       1.165      0.6007      5.9503E-03
   7    9.986       8.306       6.635       5.014       3.592       2.687       1.979       1.320      0.6646      6.5804E-03
   8    9.987       8.418       6.883       5.430       4.144       3.112       2.247       1.469      0.7308      7.2344E-03
   9    9.988       8.498       7.046       5.678       4.441       3.367       2.428       1.579      0.7815      7.7356E-03
  10    9.988       8.537       7.126       5.793       4.574       3.487       2.517       1.635      0.8083      8.0008E-03

 HEAD WILL BE SAVED ON UNIT   51 AT END OF TIME STEP   44, STRESS PERIOD    3

 DRAWDOWN WILL BE SAVED ON UNIT   52 AT END OF TIME STEP   44, STRESS PERIOD    3
1
  VOLUMETRIC BUDGET FOR ENTIRE MODEL AT END OF TIME STEP   44, STRESS PERIOD   3
  ------------------------------------------------------------------------------

     CUMULATIVE VOLUMES      L**3       RATES FOR THIS TIME STEP      L**3/T
     ------------------                 ------------------------

           IN:                                      IN:
           ---                                      ---
             STORAGE =       29982.9512               STORAGE =           4.2182
       CONSTANT HEAD =           0.0000         CONSTANT HEAD =           0.0000
               WELLS =           0.0000                 WELLS =           0.0000
     HEAD DEP BOUNDS =       82043.9844       HEAD DEP BOUNDS =         830.0873

            TOTAL IN =      112026.9375              TOTAL IN =         834.3055

          OUT:                                     OUT:
          ----                                     ----
             STORAGE =           0.0000               STORAGE =           0.0000
       CONSTANT HEAD =           0.0000         CONSTANT HEAD =           0.0000
               WELLS =       22000.0000                 WELLS =         500.0000
     HEAD DEP BOUNDS =       90027.2422       HEAD DEP BOUNDS =         334.3029

           TOTAL OUT =      112027.2422             TOTAL OUT =         834.3029

            IN - OUT =          -0.3047              IN - OUT =       2.5635E-03

 PERCENT DISCREPANCY =          -0.00     PERCENT DISCREPANCY =           0.00






         TIME SUMMARY AT END OF TIME STEP   44 IN STRESS PERIOD    3
                    SECONDS     MINUTES      HOURS       DAYS        YEARS
                    -----------------------------------------------------------
   TIME STEP LENGTH  86400.      1440.0      24.000      1.0000     2.73785E-03
 STRESS PERIOD TIME 3.80160E+06  63360.      1056.0      44.000     0.12047    
         TOTAL TIME 1.25280E+07 2.08800E+05  3480.0      145.00     0.39699    
1

 SOLVING FOR HEAD 

 OUTPUT CONTROL FOR STRESS PERIOD    3   TIME STEP   45
    SAVE HEAD FOR ALL LAYERS
    SAVE DRAWDOWN FOR ALL LAYERS
    SAVE BUDGET
    PRINT HEAD FOR ALL LAYERS
    PRINT BUDGET
 UBDSV1 SAVING "         STORAGE" ON UNIT  53 AT TIME STEP 45, STRESS PERIOD   3
 UBDSV2 SAVING "   CONSTANT HEAD" ON UNIT  53 AT TIME STEP 45, STRESS PERIOD   3
 UBDSV1 SAVING "FLOW RIGHT FACE " ON UNIT  53 AT TIME STEP 45, STRESS PERIOD   3
 UBDSV1 SAVING "FLOW FRONT FACE " ON UNIT  53 AT TIME STEP 45, STRESS PERIOD   3
1
              HEAD IN LAYER   1 AT END OF TIME STEP  45 IN STRESS PERIOD    3
  ---------------------------------------------------------------------------

            1           2           3           4           5           6           7           8           9          10
 ........................................................................................................................
   1    9.987       8.405       6.871       5.441       4.175       3.111       2.216       1.429      0.7048      6.9760E-03
   2    9.986       8.357       6.767       5.275       3.970       2.943       2.105       1.367      0.6776      6.7071E-03
   3    9.986       8.269       6.565       4.921       3.487       2.584       1.891       1.256      0.6312      6.2499E-03
   4    9.985       8.167       6.302       4.355       2.471       2.015       1.619       1.134      0.5845      5.7898E-03
   5    9.984       8.114       6.119       3.725      2.5413E-02   1.385       1.435       1.075      0.5665      5.6137E-03
   6    9.985       8.185       6.334       4.398       2.520       2.063       1.660       1.164      0.6002      5.9458E-03
   7    9.986       8.306       6.634       5.013       3.591       2.686       1.978       1.319      0.6641      6.5759E-03
   8    9.987       8.418       6.882       5.429       4.143       3.111       2.246       1.469      0.7304      7.2299E-03
   9    9.988       8.497       7.045       5.677       4.440       3.366       2.427       1.578      0.7811      7.7311E-03
  10    9.988       8.537       7.125       5.792       4.573       3.485       2.516       1.634      0.8079      7.9963E-03

 HEAD WILL BE SAVED ON UNIT   51 AT END OF TIME STEP   45, STRESS PERIOD    3

 DRAWDOWN WILL BE SAVED ON UNIT   52 AT END OF TIME STEP   45, STRESS PERIOD    3
1
  VOLUMETRIC BUDGET FOR ENTIRE MODEL AT END OF TIME STEP   45, STRESS PERIOD   3
  ------------------------------------------------------------------------------

     CUMULATIVE VOLUMES      L**3       RATES FOR THIS TIME STEP      L**3/T
     ------------------                 ------------------------

           IN:                                      IN:
           ---                                      ---
             STORAGE =       29986.7168               STORAGE =           3.7659
       CONSTANT HEAD =           0.0000         CONSTANT HEAD =           0.0000
               WELLS =           0.0000                 WELLS =           0.0000
     HEAD DEP BOUNDS =       82874.2969       HEAD DEP BOUNDS =         830.3114

            TOTAL IN =      112861.0156              TOTAL IN =         834.0773

          OUT:                                     OUT:
          ----                                     ----
             STORAGE =           0.0000               STORAGE =           0.0000
       CONSTANT HEAD =           0.0000         CONSTANT HEAD =           0.0000
               WELLS =       22500.0000                 WELLS =         500.0000
     HEAD DEP BOUNDS =       90361.3203       HEAD DEP BOUNDS =         334.0767

           TOTAL OUT =      112861.3203             TOTAL OUT =         834.0767

            IN - OUT =          -0.3047              IN - OUT =       6.1035E-04

 PERCENT DISCREPANCY =          -0.00     PERCENT DISCREPANCY =           0.00






         TIME SUMMARY AT END OF TIME STEP   45 IN STRESS PERIOD    3
                    SECONDS     MINUTES      HOURS       DAYS        YEARS
                    -----------------------------------------------------------
   TIME STEP LENGTH  86400.      1440.0      24.000      1.0000     2.73785E-03
 STRESS PERIOD TIME 3.88800E+06  64800.      1080.0      45.000     0.12320    
         TOTAL TIME 1.26144E+07 2.10240E+05  3504.0      146.00     0.39973    
1

 SOLVING FOR HEAD 

 OUTPUT CONTROL FOR STRESS PERIOD    3   TIME STEP   46
    SAVE HEAD FOR ALL LAYERS
    SAVE DRAWDOWN FOR ALL LAYERS
    SAVE BUDGET
    PRINT HEAD FOR ALL LAYERS
    PRINT BUDGET
 UBDSV1 SAVING "         STORAGE" ON UNIT  53 AT TIME STEP 46, STRESS PERIOD   3
 UBDSV2 SAVING "   CONSTANT HEAD" ON UNIT  53 AT TIME STEP 46, STRESS PERIOD   3
 UBDSV1 SAVING "FLOW RIGHT FACE " ON UNIT  53 AT TIME STEP 46, STRESS PERIOD   3
 UBDSV1 SAVING "FLOW FRONT FACE " ON UNIT  53 AT TIME STEP 46, STRESS PERIOD   3
1
              HEAD IN LAYER   1 AT END OF TIME STEP  46 IN STRESS PERIOD    3
  ---------------------------------------------------------------------------

            1           2           3           4           5           6           7           8           9          10
 ........................................................................................................................
   1    9.987       8.405       6.871       5.440       4.173       3.110       2.215       1.429      0.7044      6.9719E-03
   2    9.986       8.357       6.767       5.274       3.969       2.942       2.104       1.366      0.6772      6.7030E-03
   3    9.986       8.268       6.564       4.920       3.486       2.583       1.890       1.255      0.6308      6.2458E-03
   4    9.985       8.167       6.301       4.354       2.470       2.014       1.618       1.133      0.5841      5.7857E-03
   5    9.984       8.114       6.118       3.724      2.4247E-02   1.384       1.434       1.074      0.5661      5.6096E-03
   6    9.985       8.184       6.333       4.397       2.519       2.062       1.659       1.163      0.5998      5.9417E-03
   7    9.986       8.305       6.633       5.012       3.590       2.685       1.977       1.318      0.6637      6.5718E-03
   8    9.987       8.418       6.881       5.428       4.142       3.110       2.245       1.468      0.7300      7.2259E-03
   9    9.988       8.497       7.045       5.676       4.439       3.365       2.426       1.577      0.7807      7.7271E-03
  10    9.988       8.536       7.124       5.791       4.572       3.484       2.515       1.633      0.8075      7.9923E-03

 HEAD WILL BE SAVED ON UNIT   51 AT END OF TIME STEP   46, STRESS PERIOD    3

 DRAWDOWN WILL BE SAVED ON UNIT   52 AT END OF TIME STEP   46, STRESS PERIOD    3
1
  VOLUMETRIC BUDGET FOR ENTIRE MODEL AT END OF TIME STEP   46, STRESS PERIOD   3
  ------------------------------------------------------------------------------

     CUMULATIVE VOLUMES      L**3       RATES FOR THIS TIME STEP      L**3/T
     ------------------                 ------------------------

           IN:                                      IN:
           ---                                      ---
             STORAGE =       29990.0781               STORAGE =           3.3617
       CONSTANT HEAD =           0.0000         CONSTANT HEAD =           0.0000
               WELLS =           0.0000                 WELLS =           0.0000
     HEAD DEP BOUNDS =       83704.8047       HEAD DEP BOUNDS =         830.5115

            TOTAL IN =      113694.8828              TOTAL IN =         833.8733

          OUT:                                     OUT:
          ----                                     ----
             STORAGE =           0.0000               STORAGE =           0.0000
       CONSTANT HEAD =           0.0000         CONSTANT HEAD =           0.0000
               WELLS =       23000.0000                 WELLS =         500.0000
     HEAD DEP BOUNDS =       90695.1953       HEAD DEP BOUNDS =         333.8747

           TOTAL OUT =      113695.1953             TOTAL OUT =         833.8748

            IN - OUT =          -0.3125              IN - OUT =      -1.4648E-03

 PERCENT DISCREPANCY =          -0.00     PERCENT DISCREPANCY =          -0.00






         TIME SUMMARY AT END OF TIME STEP   46 IN STRESS PERIOD    3
                    SECONDS     MINUTES      HOURS       DAYS        YEARS
                    -----------------------------------------------------------
   TIME STEP LENGTH  86400.      1440.0      24.000      1.0000     2.73785E-03
 STRESS PERIOD TIME 3.97440E+06  66240.      1104.0      46.000     0.12594    
         TOTAL TIME 1.27008E+07 2.11680E+05  3528.0      147.00     0.40246    
1

 SOLVING FOR HEAD 

 OUTPUT CONTROL FOR STRESS PERIOD    3   TIME STEP   47
    SAVE HEAD FOR ALL LAYERS
    SAVE DRAWDOWN FOR ALL LAYERS
    SAVE BUDGET
    PRINT HEAD FOR ALL LAYERS
    PRINT BUDGET
 UBDSV1 SAVING "         STORAGE" ON UNIT  53 AT TIME STEP 47, STRESS PERIOD   3
 UBDSV2 SAVING "   CONSTANT HEAD" ON UNIT  53 AT TIME STEP 47, STRESS PERIOD   3
 UBDSV1 SAVING "FLOW RIGHT FACE " ON UNIT  53 AT TIME STEP 47, STRESS PERIOD   3
 UBDSV1 SAVING "FLOW FRONT FACE " ON UNIT  53 AT TIME STEP 47, STRESS PERIOD   3
1
              HEAD IN LAYER   1 AT END OF TIME STEP  47 IN STRESS PERIOD    3
  ---------------------------------------------------------------------------

            1           2           3           4           5           6           7           8           9          10
 ........................................................................................................................
   1    9.987       8.404       6.870       5.439       4.172       3.109       2.214       1.428      0.7041      6.9683E-03
   2    9.986       8.356       6.766       5.273       3.968       2.941       2.103       1.366      0.6768      6.6994E-03
   3    9.986       8.268       6.563       4.919       3.485       2.582       1.889       1.255      0.6305      6.2422E-03
   4    9.985       8.167       6.300       4.353       2.469       2.013       1.617       1.133      0.5837      5.7821E-03
   5    9.984       8.113       6.117       3.723      2.3207E-02   1.383       1.433       1.074      0.5657      5.6060E-03
   6    9.985       8.184       6.333       4.396       2.518       2.061       1.658       1.162      0.5994      5.9381E-03
   7    9.986       8.305       6.633       5.011       3.589       2.684       1.976       1.317      0.6634      6.5683E-03
   8    9.987       8.417       6.880       5.427       4.141       3.108       2.244       1.467      0.7296      7.2223E-03
   9    9.988       8.496       7.044       5.675       4.438       3.364       2.425       1.576      0.7803      7.7235E-03
  10    9.988       8.536       7.124       5.790       4.571       3.483       2.514       1.633      0.8071      7.9887E-03

 HEAD WILL BE SAVED ON UNIT   51 AT END OF TIME STEP   47, STRESS PERIOD    3

 DRAWDOWN WILL BE SAVED ON UNIT   52 AT END OF TIME STEP   47, STRESS PERIOD    3
1
  VOLUMETRIC BUDGET FOR ENTIRE MODEL AT END OF TIME STEP   47, STRESS PERIOD   3
  ------------------------------------------------------------------------------

     CUMULATIVE VOLUMES      L**3       RATES FOR THIS TIME STEP      L**3/T
     ------------------                 ------------------------

           IN:                                      IN:
           ---                                      ---
             STORAGE =       29993.0801               STORAGE =           3.0014
       CONSTANT HEAD =           0.0000         CONSTANT HEAD =           0.0000
               WELLS =           0.0000                 WELLS =           0.0000
     HEAD DEP BOUNDS =       84535.4922       HEAD DEP BOUNDS =         830.6901

            TOTAL IN =      114528.5703              TOTAL IN =         833.6914

          OUT:                                     OUT:
          ----                                     ----
             STORAGE =           0.0000               STORAGE =           0.0000
       CONSTANT HEAD =           0.0000         CONSTANT HEAD =           0.0000
               WELLS =       23500.0000                 WELLS =         500.0000
     HEAD DEP BOUNDS =       91028.8906       HEAD DEP BOUNDS =         333.6944

           TOTAL OUT =      114528.8906             TOTAL OUT =         833.6945

            IN - OUT =          -0.3203              IN - OUT =      -3.0518E-03

 PERCENT DISCREPANCY =          -0.00     PERCENT DISCREPANCY =          -0.00






         TIME SUMMARY AT END OF TIME STEP   47 IN STRESS PERIOD    3
                    SECONDS     MINUTES      HOURS       DAYS        YEARS
                    -----------------------------------------------------------
   TIME STEP LENGTH  86400.      1440.0      24.000      1.0000     2.73785E-03
 STRESS PERIOD TIME 4.06080E+06  67680.      1128.0      47.000     0.12868    
         TOTAL TIME 1.27872E+07 2.13120E+05  3552.0      148.00     0.40520    
1

 SOLVING FOR HEAD 

 OUTPUT CONTROL FOR STRESS PERIOD    3   TIME STEP   48
    SAVE HEAD FOR ALL LAYERS
    SAVE DRAWDOWN FOR ALL LAYERS
    SAVE BUDGET
    PRINT HEAD FOR ALL LAYERS
    PRINT BUDGET
 UBDSV1 SAVING "         STORAGE" ON UNIT  53 AT TIME STEP 48, STRESS PERIOD   3
 UBDSV2 SAVING "   CONSTANT HEAD" ON UNIT  53 AT TIME STEP 48, STRESS PERIOD   3
 UBDSV1 SAVING "FLOW RIGHT FACE " ON UNIT  53 AT TIME STEP 48, STRESS PERIOD   3
 UBDSV1 SAVING "FLOW FRONT FACE " ON UNIT  53 AT TIME STEP 48, STRESS PERIOD   3
1
              HEAD IN LAYER   1 AT END OF TIME STEP  48 IN STRESS PERIOD    3
  ---------------------------------------------------------------------------

            1           2           3           4           5           6           7           8           9          10
 ........................................................................................................................
   1    9.987       8.404       6.869       5.438       4.171       3.108       2.213       1.427      0.7037      6.9650E-03
   2    9.986       8.356       6.765       5.272       3.967       2.940       2.102       1.365      0.6765      6.6962E-03
   3    9.986       8.268       6.563       4.918       3.484       2.581       1.889       1.254      0.6301      6.2390E-03
   4    9.985       8.166       6.300       4.352       2.468       2.012       1.616       1.132      0.5834      5.7789E-03
   5    9.984       8.113       6.117       3.722      2.2278E-02   1.382       1.432       1.073      0.5654      5.6028E-03
   6    9.985       8.184       6.332       4.396       2.517       2.060       1.658       1.162      0.5991      5.9349E-03
   7    9.986       8.305       6.632       5.011       3.588       2.683       1.975       1.317      0.6630      6.5650E-03
   8    9.987       8.417       6.880       5.426       4.140       3.108       2.244       1.467      0.7293      7.2191E-03
   9    9.988       8.496       7.043       5.674       4.437       3.363       2.424       1.576      0.7800      7.7203E-03
  10    9.988       8.536       7.123       5.789       4.570       3.482       2.513       1.632      0.8068      7.9855E-03

 HEAD WILL BE SAVED ON UNIT   51 AT END OF TIME STEP   48, STRESS PERIOD    3

 DRAWDOWN WILL BE SAVED ON UNIT   52 AT END OF TIME STEP   48, STRESS PERIOD    3
1
  VOLUMETRIC BUDGET FOR ENTIRE MODEL AT END OF TIME STEP   48, STRESS PERIOD   3
  ------------------------------------------------------------------------------

     CUMULATIVE VOLUMES      L**3       RATES FOR THIS TIME STEP      L**3/T
     ------------------                 ------------------------

           IN:                                      IN:
           ---                                      ---
             STORAGE =       29995.7598               STORAGE =           2.6794
       CONSTANT HEAD =           0.0000         CONSTANT HEAD =           0.0000
               WELLS =           0.0000                 WELLS =           0.0000
     HEAD DEP BOUNDS =       85366.3438       HEAD DEP BOUNDS =         830.8496

            TOTAL IN =      115362.1016              TOTAL IN =         833.5290

          OUT:                                     OUT:
          ----                                     ----
             STORAGE =           0.0000               STORAGE =           0.0000
       CONSTANT HEAD =           0.0000         CONSTANT HEAD =           0.0000
               WELLS =       24000.0000                 WELLS =         500.0000
     HEAD DEP BOUNDS =       91362.4219       HEAD DEP BOUNDS =         333.5335

           TOTAL OUT =      115362.4219             TOTAL OUT =         833.5334

            IN - OUT =          -0.3203              IN - OUT =      -4.4556E-03

 PERCENT DISCREPANCY =          -0.00     PERCENT DISCREPANCY =          -0.00






         TIME SUMMARY AT END OF TIME STEP   48 IN STRESS PERIOD    3
                    SECONDS     MINUTES      HOURS       DAYS        YEARS
                    -----------------------------------------------------------
   TIME STEP LENGTH  86400.      1440.0      24.000      1.0000     2.73785E-03
 STRESS PERIOD TIME 4.14720E+06  69120.      1152.0      48.000     0.13142    
         TOTAL TIME 1.28736E+07 2.14560E+05  3576.0      149.00     0.40794    
1

 SOLVING FOR HEAD 

 OUTPUT CONTROL FOR STRESS PERIOD    3   TIME STEP   49
    SAVE HEAD FOR ALL LAYERS
    SAVE DRAWDOWN FOR ALL LAYERS
    SAVE BUDGET
    PRINT HEAD FOR ALL LAYERS
    PRINT BUDGET
 UBDSV1 SAVING "         STORAGE" ON UNIT  53 AT TIME STEP 49, STRESS PERIOD   3
 UBDSV2 SAVING "   CONSTANT HEAD" ON UNIT  53 AT TIME STEP 49, STRESS PERIOD   3
 UBDSV1 SAVING "FLOW RIGHT FACE " ON UNIT  53 AT TIME STEP 49, STRESS PERIOD   3
 UBDSV1 SAVING "FLOW FRONT FACE " ON UNIT  53 AT TIME STEP 49, STRESS PERIOD   3
1
              HEAD IN LAYER   1 AT END OF TIME STEP  49 IN STRESS PERIOD    3
  ---------------------------------------------------------------------------

            1           2           3           4           5           6           7           8           9          10
 ........................................................................................................................
   1    9.987       8.404       6.869       5.437       4.171       3.107       2.212       1.427      0.7034      6.9621E-03
   2    9.986       8.356       6.765       5.271       3.966       2.939       2.101       1.365      0.6762      6.6933E-03
   3    9.986       8.267       6.562       4.917       3.483       2.580       1.888       1.254      0.6298      6.2361E-03
   4    9.985       8.166       6.299       4.351       2.467       2.011       1.616       1.131      0.5831      5.7760E-03
   5    9.984       8.113       6.116       3.721      2.1449E-02   1.381       1.432       1.073      0.5651      5.5999E-03
   6    9.985       8.184       6.332       4.395       2.516       2.059       1.657       1.161      0.5988      5.9320E-03
   7    9.986       8.304       6.631       5.010       3.587       2.682       1.975       1.316      0.6628      6.5622E-03
   8    9.987       8.417       6.879       5.426       4.139       3.107       2.243       1.466      0.7290      7.2162E-03
   9    9.988       8.496       7.043       5.673       4.436       3.362       2.423       1.575      0.7797      7.7175E-03
  10    9.988       8.535       7.122       5.789       4.569       3.481       2.512       1.632      0.8065      7.9826E-03

 HEAD WILL BE SAVED ON UNIT   51 AT END OF TIME STEP   49, STRESS PERIOD    3

 DRAWDOWN WILL BE SAVED ON UNIT   52 AT END OF TIME STEP   49, STRESS PERIOD    3
1
  VOLUMETRIC BUDGET FOR ENTIRE MODEL AT END OF TIME STEP   49, STRESS PERIOD   3
  ------------------------------------------------------------------------------

     CUMULATIVE VOLUMES      L**3       RATES FOR THIS TIME STEP      L**3/T
     ------------------                 ------------------------

           IN:                                      IN:
           ---                                      ---
             STORAGE =       29998.1523               STORAGE =           2.3921
       CONSTANT HEAD =           0.0000         CONSTANT HEAD =           0.0000
               WELLS =           0.0000                 WELLS =           0.0000
     HEAD DEP BOUNDS =       86197.3359       HEAD DEP BOUNDS =         830.9958

            TOTAL IN =      116195.4844              TOTAL IN =         833.3879

          OUT:                                     OUT:
          ----                                     ----
             STORAGE =           0.0000               STORAGE =           0.0000
       CONSTANT HEAD =           0.0000         CONSTANT HEAD =           0.0000
               WELLS =       24500.0000                 WELLS =         500.0000
     HEAD DEP BOUNDS =       91695.8125       HEAD DEP BOUNDS =         333.3898

           TOTAL OUT =      116195.8125             TOTAL OUT =         833.3898

            IN - OUT =          -0.3281              IN - OUT =      -1.8311E-03

 PERCENT DISCREPANCY =          -0.00     PERCENT DISCREPANCY =          -0.00






         TIME SUMMARY AT END OF TIME STEP   49 IN STRESS PERIOD    3
                    SECONDS     MINUTES      HOURS       DAYS        YEARS
                    -----------------------------------------------------------
   TIME STEP LENGTH  86400.      1440.0      24.000      1.0000     2.73785E-03
 STRESS PERIOD TIME 4.23360E+06  70560.      1176.0      49.000     0.13415    
         TOTAL TIME 1.29600E+07 2.16000E+05  3600.0      150.00     0.41068    
1

 SOLVING FOR HEAD 

 OUTPUT CONTROL FOR STRESS PERIOD    3   TIME STEP   50
    SAVE HEAD FOR ALL LAYERS
    SAVE DRAWDOWN FOR ALL LAYERS
    SAVE BUDGET
    PRINT HEAD FOR ALL LAYERS
    PRINT BUDGET
 UBDSV1 SAVING "         STORAGE" ON UNIT  53 AT TIME STEP 50, STRESS PERIOD   3
 UBDSV2 SAVING "   CONSTANT HEAD" ON UNIT  53 AT TIME STEP 50, STRESS PERIOD   3
 UBDSV1 SAVING "FLOW RIGHT FACE " ON UNIT  53 AT TIME STEP 50, STRESS PERIOD   3
 UBDSV1 SAVING "FLOW FRONT FACE " ON UNIT  53 AT TIME STEP 50, STRESS PERIOD   3
1
              HEAD IN LAYER   1 AT END OF TIME STEP  50 IN STRESS PERIOD    3
  ---------------------------------------------------------------------------

            1           2           3           4           5           6           7           8           9          10
 ........................................................................................................................
   1    9.987       8.404       6.868       5.437       4.170       3.107       2.211       1.426      0.7032      6.9596E-03
   2    9.986       8.355       6.764       5.271       3.965       2.938       2.100       1.364      0.6759      6.6907E-03
   3    9.986       8.267       6.562       4.916       3.482       2.580       1.887       1.253      0.6296      6.2335E-03
   4    9.985       8.166       6.299       4.351       2.466       2.011       1.615       1.131      0.5828      5.7734E-03
   5    9.984       8.112       6.116       3.720      2.0708E-02   1.380       1.431       1.072      0.5648      5.5974E-03
   6    9.985       8.183       6.331       4.394       2.515       2.058       1.656       1.161      0.5986      5.9295E-03
   7    9.986       8.304       6.631       5.009       3.586       2.681       1.974       1.316      0.6625      6.5596E-03
   8    9.987       8.416       6.879       5.425       4.138       3.106       2.242       1.466      0.7287      7.2137E-03
   9    9.988       8.495       7.042       5.673       4.435       3.361       2.423       1.575      0.7794      7.7149E-03
  10    9.988       8.535       7.122       5.788       4.568       3.481       2.512       1.631      0.8063      7.9801E-03

 HEAD WILL BE SAVED ON UNIT   51 AT END OF TIME STEP   50, STRESS PERIOD    3

 DRAWDOWN WILL BE SAVED ON UNIT   52 AT END OF TIME STEP   50, STRESS PERIOD    3
1
  VOLUMETRIC BUDGET FOR ENTIRE MODEL AT END OF TIME STEP   50, STRESS PERIOD   3
  ------------------------------------------------------------------------------

     CUMULATIVE VOLUMES      L**3       RATES FOR THIS TIME STEP      L**3/T
     ------------------                 ------------------------

           IN:                                      IN:
           ---                                      ---
             STORAGE =       30000.2871               STORAGE =           2.1355
       CONSTANT HEAD =           0.0000         CONSTANT HEAD =           0.0000
               WELLS =           0.0000                 WELLS =           0.0000
     HEAD DEP BOUNDS =       87028.4609       HEAD DEP BOUNDS =         831.1267

            TOTAL IN =      117028.7500              TOTAL IN =         833.2623

          OUT:                                     OUT:
          ----                                     ----
             STORAGE =           0.0000               STORAGE =           0.0000
       CONSTANT HEAD =           0.0000         CONSTANT HEAD =           0.0000
               WELLS =       25000.0000                 WELLS =         500.0000
     HEAD DEP BOUNDS =       92029.0703       HEAD DEP BOUNDS =         333.2615

           TOTAL OUT =      117029.0703             TOTAL OUT =         833.2615

            IN - OUT =          -0.3203              IN - OUT =       7.9346E-04

 PERCENT DISCREPANCY =          -0.00     PERCENT DISCREPANCY =           0.00






         TIME SUMMARY AT END OF TIME STEP   50 IN STRESS PERIOD    3
                    SECONDS     MINUTES      HOURS       DAYS        YEARS
                    -----------------------------------------------------------
   TIME STEP LENGTH  86400.      1440.0      24.000      1.0000     2.73785E-03
 STRESS PERIOD TIME 4.32000E+06  72000.      1200.0      50.000     0.13689    
         TOTAL TIME 1.30464E+07 2.17440E+05  3624.0      151.00     0.41342    
1

 SOLVING FOR HEAD 

 OUTPUT CONTROL FOR STRESS PERIOD    3   TIME STEP   51
    SAVE HEAD FOR ALL LAYERS
    SAVE DRAWDOWN FOR ALL LAYERS
    SAVE BUDGET
    PRINT HEAD FOR ALL LAYERS
    PRINT BUDGET
 UBDSV1 SAVING "         STORAGE" ON UNIT  53 AT TIME STEP 51, STRESS PERIOD   3
 UBDSV2 SAVING "   CONSTANT HEAD" ON UNIT  53 AT TIME STEP 51, STRESS PERIOD   3
 UBDSV1 SAVING "FLOW RIGHT FACE " ON UNIT  53 AT TIME STEP 51, STRESS PERIOD   3
 UBDSV1 SAVING "FLOW FRONT FACE " ON UNIT  53 AT TIME STEP 51, STRESS PERIOD   3
1
              HEAD IN LAYER   1 AT END OF TIME STEP  51 IN STRESS PERIOD    3
  ---------------------------------------------------------------------------

            1           2           3           4           5           6           7           8           9          10
 ........................................................................................................................
   1    9.987       8.403       6.868       5.436       4.169       3.106       2.211       1.426      0.7029      6.9573E-03
   2    9.986       8.355       6.764       5.270       3.965       2.938       2.100       1.364      0.6757      6.6884E-03
   3    9.986       8.267       6.561       4.916       3.481       2.579       1.887       1.253      0.6294      6.2312E-03
   4    9.985       8.166       6.298       4.350       2.466       2.010       1.615       1.130      0.5826      5.7711E-03
   5    9.984       8.112       6.115       3.720      2.0047E-02   1.380       1.431       1.072      0.5646      5.5951E-03
   6    9.985       8.183       6.331       4.394       2.514       2.058       1.656       1.160      0.5983      5.9272E-03
   7    9.986       8.304       6.631       5.009       3.586       2.681       1.974       1.315      0.6623      6.5573E-03
   8    9.987       8.416       6.878       5.424       4.138       3.105       2.242       1.465      0.7285      7.2114E-03
   9    9.988       8.495       7.042       5.672       4.435       3.361       2.422       1.574      0.7792      7.7126E-03
  10    9.988       8.535       7.122       5.787       4.568       3.480       2.511       1.631      0.8060      7.9778E-03

 HEAD WILL BE SAVED ON UNIT   51 AT END OF TIME STEP   51, STRESS PERIOD    3

 DRAWDOWN WILL BE SAVED ON UNIT   52 AT END OF TIME STEP   51, STRESS PERIOD    3
1
  VOLUMETRIC BUDGET FOR ENTIRE MODEL AT END OF TIME STEP   51, STRESS PERIOD   3
  ------------------------------------------------------------------------------

     CUMULATIVE VOLUMES      L**3       RATES FOR THIS TIME STEP      L**3/T
     ------------------                 ------------------------

           IN:                                      IN:
           ---                                      ---
             STORAGE =       30002.1934               STORAGE =           1.9066
       CONSTANT HEAD =           0.0000         CONSTANT HEAD =           0.0000
               WELLS =           0.0000                 WELLS =           0.0000
     HEAD DEP BOUNDS =       87859.7031       HEAD DEP BOUNDS =         831.2402

            TOTAL IN =      117861.8984              TOTAL IN =         833.1467

          OUT:                                     OUT:
          ----                                     ----
             STORAGE =           0.0000               STORAGE =           0.0000
       CONSTANT HEAD =           0.0000         CONSTANT HEAD =           0.0000
               WELLS =       25500.0000                 WELLS =         500.0000
     HEAD DEP BOUNDS =       92362.2188       HEAD DEP BOUNDS =         333.1470

           TOTAL OUT =      117862.2188             TOTAL OUT =         833.1470

            IN - OUT =          -0.3203              IN - OUT =      -2.4414E-04

 PERCENT DISCREPANCY =          -0.00     PERCENT DISCREPANCY =          -0.00






         TIME SUMMARY AT END OF TIME STEP   51 IN STRESS PERIOD    3
                    SECONDS     MINUTES      HOURS       DAYS        YEARS
                    -----------------------------------------------------------
   TIME STEP LENGTH  86400.      1440.0      24.000      1.0000     2.73785E-03
 STRESS PERIOD TIME 4.40640E+06  73440.      1224.0      51.000     0.13963    
         TOTAL TIME 1.31328E+07 2.18880E+05  3648.0      152.00     0.41615    
1

 SOLVING FOR HEAD 

 OUTPUT CONTROL FOR STRESS PERIOD    3   TIME STEP   52
    SAVE HEAD FOR ALL LAYERS
    SAVE DRAWDOWN FOR ALL LAYERS
    SAVE BUDGET
    PRINT HEAD FOR ALL LAYERS
    PRINT BUDGET
 UBDSV1 SAVING "         STORAGE" ON UNIT  53 AT TIME STEP 52, STRESS PERIOD   3
 UBDSV2 SAVING "   CONSTANT HEAD" ON UNIT  53 AT TIME STEP 52, STRESS PERIOD   3
 UBDSV1 SAVING "FLOW RIGHT FACE " ON UNIT  53 AT TIME STEP 52, STRESS PERIOD   3
 UBDSV1 SAVING "FLOW FRONT FACE " ON UNIT  53 AT TIME STEP 52, STRESS PERIOD   3
1
              HEAD IN LAYER   1 AT END OF TIME STEP  52 IN STRESS PERIOD    3
  ---------------------------------------------------------------------------

            1           2           3           4           5           6           7           8           9          10
 ........................................................................................................................
   1    9.987       8.403       6.867       5.435       4.169       3.105       2.210       1.426      0.7027      6.9552E-03
   2    9.986       8.355       6.763       5.270       3.964       2.937       2.099       1.363      0.6755      6.6863E-03
   3    9.986       8.267       6.561       4.915       3.481       2.578       1.886       1.252      0.6291      6.2291E-03
   4    9.985       8.165       6.298       4.350       2.465       2.009       1.614       1.130      0.5824      5.7691E-03
   5    9.984       8.112       6.115       3.719      1.9457E-02   1.379       1.430       1.071      0.5644      5.5930E-03
   6    9.985       8.183       6.330       4.393       2.514       2.057       1.655       1.160      0.5981      5.9252E-03
   7    9.986       8.304       6.630       5.008       3.585       2.680       1.973       1.315      0.6621      6.5553E-03
   8    9.987       8.416       6.878       5.424       4.137       3.105       2.241       1.465      0.7283      7.2094E-03
   9    9.988       8.495       7.042       5.672       4.434       3.360       2.422       1.574      0.7790      7.7106E-03
  10    9.988       8.535       7.121       5.787       4.567       3.479       2.511       1.630      0.8058      7.9758E-03

 HEAD WILL BE SAVED ON UNIT   51 AT END OF TIME STEP   52, STRESS PERIOD    3

 DRAWDOWN WILL BE SAVED ON UNIT   52 AT END OF TIME STEP   52, STRESS PERIOD    3
1
  VOLUMETRIC BUDGET FOR ENTIRE MODEL AT END OF TIME STEP   52, STRESS PERIOD   3
  ------------------------------------------------------------------------------

     CUMULATIVE VOLUMES      L**3       RATES FOR THIS TIME STEP      L**3/T
     ------------------                 ------------------------

           IN:                                      IN:
           ---                                      ---
             STORAGE =       30003.8945               STORAGE =           1.7019
       CONSTANT HEAD =           0.0000         CONSTANT HEAD =           0.0000
               WELLS =           0.0000                 WELLS =           0.0000
     HEAD DEP BOUNDS =       88691.0469       HEAD DEP BOUNDS =         831.3415

            TOTAL IN =      118694.9375              TOTAL IN =         833.0434

          OUT:                                     OUT:
          ----                                     ----
             STORAGE =           0.0000               STORAGE =           0.0000
       CONSTANT HEAD =           0.0000         CONSTANT HEAD =           0.0000
               WELLS =       26000.0000                 WELLS =         500.0000
     HEAD DEP BOUNDS =       92695.2656       HEAD DEP BOUNDS =         333.0447

           TOTAL OUT =      118695.2656             TOTAL OUT =         833.0447

            IN - OUT =          -0.3281              IN - OUT =      -1.3428E-03

 PERCENT DISCREPANCY =          -0.00     PERCENT DISCREPANCY =          -0.00






         TIME SUMMARY AT END OF TIME STEP   52 IN STRESS PERIOD    3
                    SECONDS     MINUTES      HOURS       DAYS        YEARS
                    -----------------------------------------------------------
   TIME STEP LENGTH  86400.      1440.0      24.000      1.0000     2.73785E-03
 STRESS PERIOD TIME 4.49280E+06  74880.      1248.0      52.000     0.14237    
         TOTAL TIME 1.32192E+07 2.20320E+05  3672.0      153.00     0.41889    
1

 SOLVING FOR HEAD 

 OUTPUT CONTROL FOR STRESS PERIOD    3   TIME STEP   53
    SAVE HEAD FOR ALL LAYERS
    SAVE DRAWDOWN FOR ALL LAYERS
    SAVE BUDGET
    PRINT HEAD FOR ALL LAYERS
    PRINT BUDGET
 UBDSV1 SAVING "         STORAGE" ON UNIT  53 AT TIME STEP 53, STRESS PERIOD   3
 UBDSV2 SAVING "   CONSTANT HEAD" ON UNIT  53 AT TIME STEP 53, STRESS PERIOD   3
 UBDSV1 SAVING "FLOW RIGHT FACE " ON UNIT  53 AT TIME STEP 53, STRESS PERIOD   3
 UBDSV1 SAVING "FLOW FRONT FACE " ON UNIT  53 AT TIME STEP 53, STRESS PERIOD   3
1
              HEAD IN LAYER   1 AT END OF TIME STEP  53 IN STRESS PERIOD    3
  ---------------------------------------------------------------------------

            1           2           3           4           5           6           7           8           9          10
 ........................................................................................................................
   1    9.987       8.403       6.867       5.435       4.168       3.105       2.210       1.425      0.7026      6.9534E-03
   2    9.986       8.355       6.763       5.269       3.964       2.936       2.099       1.363      0.6753      6.6845E-03
   3    9.986       8.267       6.561       4.915       3.480       2.578       1.886       1.252      0.6290      6.2273E-03
   4    9.985       8.165       6.297       4.349       2.464       2.009       1.614       1.130      0.5822      5.7672E-03
   5    9.984       8.112       6.115       3.719      1.8931E-02   1.379       1.430       1.071      0.5642      5.5912E-03
   6    9.985       8.183       6.330       4.393       2.513       2.057       1.655       1.160      0.5980      5.9233E-03
   7    9.986       8.304       6.630       5.008       3.584       2.680       1.973       1.315      0.6619      6.5535E-03
   8    9.987       8.416       6.878       5.423       4.137       3.104       2.241       1.464      0.7281      7.2075E-03
   9    9.988       8.495       7.041       5.671       4.434       3.360       2.421       1.574      0.7788      7.7088E-03
  10    9.988       8.535       7.121       5.786       4.566       3.479       2.510       1.630      0.8056      7.9739E-03

 HEAD WILL BE SAVED ON UNIT   51 AT END OF TIME STEP   53, STRESS PERIOD    3

 DRAWDOWN WILL BE SAVED ON UNIT   52 AT END OF TIME STEP   53, STRESS PERIOD    3
1
  VOLUMETRIC BUDGET FOR ENTIRE MODEL AT END OF TIME STEP   53, STRESS PERIOD   3
  ------------------------------------------------------------------------------

     CUMULATIVE VOLUMES      L**3       RATES FOR THIS TIME STEP      L**3/T
     ------------------                 ------------------------

           IN:                                      IN:
           ---                                      ---
             STORAGE =       30005.4141               STORAGE =           1.5195
       CONSTANT HEAD =           0.0000         CONSTANT HEAD =           0.0000
               WELLS =           0.0000                 WELLS =           0.0000
     HEAD DEP BOUNDS =       89522.4766       HEAD DEP BOUNDS =         831.4319

            TOTAL IN =      119527.8906              TOTAL IN =         832.9514

          OUT:                                     OUT:
          ----                                     ----
             STORAGE =           0.0000               STORAGE =           0.0000
       CONSTANT HEAD =           0.0000         CONSTANT HEAD =           0.0000
               WELLS =       26500.0000                 WELLS =         500.0000
     HEAD DEP BOUNDS =       93028.2188       HEAD DEP BOUNDS =         332.9535

           TOTAL OUT =      119528.2188             TOTAL OUT =         832.9535

            IN - OUT =          -0.3281              IN - OUT =      -2.1362E-03

 PERCENT DISCREPANCY =          -0.00     PERCENT DISCREPANCY =          -0.00






         TIME SUMMARY AT END OF TIME STEP   53 IN STRESS PERIOD    3
                    SECONDS     MINUTES      HOURS       DAYS        YEARS
                    -----------------------------------------------------------
   TIME STEP LENGTH  86400.      1440.0      24.000      1.0000     2.73785E-03
 STRESS PERIOD TIME 4.57920E+06  76320.      1272.0      53.000     0.14511    
         TOTAL TIME 1.33056E+07 2.21760E+05  3696.0      154.00     0.42163    
1

 SOLVING FOR HEAD 

 OUTPUT CONTROL FOR STRESS PERIOD    3   TIME STEP   54
    SAVE HEAD FOR ALL LAYERS
    SAVE DRAWDOWN FOR ALL LAYERS
    SAVE BUDGET
    PRINT HEAD FOR ALL LAYERS
    PRINT BUDGET
 UBDSV1 SAVING "         STORAGE" ON UNIT  53 AT TIME STEP 54, STRESS PERIOD   3
 UBDSV2 SAVING "   CONSTANT HEAD" ON UNIT  53 AT TIME STEP 54, STRESS PERIOD   3
 UBDSV1 SAVING "FLOW RIGHT FACE " ON UNIT  53 AT TIME STEP 54, STRESS PERIOD   3
 UBDSV1 SAVING "FLOW FRONT FACE " ON UNIT  53 AT TIME STEP 54, STRESS PERIOD   3
1
              HEAD IN LAYER   1 AT END OF TIME STEP  54 IN STRESS PERIOD    3
  ---------------------------------------------------------------------------

            1           2           3           4           5           6           7           8           9          10
 ........................................................................................................................
   1    9.987       8.403       6.867       5.435       4.168       3.104       2.209       1.425      0.7024      6.9517E-03
   2    9.986       8.355       6.763       5.269       3.963       2.936       2.098       1.363      0.6752      6.6829E-03
   3    9.986       8.266       6.560       4.915       3.480       2.577       1.885       1.252      0.6288      6.2257E-03
   4    9.985       8.165       6.297       4.349       2.464       2.008       1.613       1.129      0.5820      5.7656E-03
   5    9.984       8.112       6.114       3.718      1.8461E-02   1.378       1.429       1.071      0.5640      5.5896E-03
   6    9.985       8.182       6.330       4.392       2.513       2.056       1.654       1.159      0.5978      5.9217E-03
   7    9.986       8.303       6.629       5.007       3.584       2.679       1.972       1.314      0.6617      6.5518E-03
   8    9.987       8.416       6.877       5.423       4.136       3.104       2.240       1.464      0.7279      7.2059E-03
   9    9.988       8.495       7.041       5.671       4.433       3.359       2.421       1.573      0.7787      7.7071E-03
  10    9.988       8.534       7.121       5.786       4.566       3.478       2.510       1.630      0.8055      7.9723E-03

 HEAD WILL BE SAVED ON UNIT   51 AT END OF TIME STEP   54, STRESS PERIOD    3

 DRAWDOWN WILL BE SAVED ON UNIT   52 AT END OF TIME STEP   54, STRESS PERIOD    3
1
  VOLUMETRIC BUDGET FOR ENTIRE MODEL AT END OF TIME STEP   54, STRESS PERIOD   3
  ------------------------------------------------------------------------------

     CUMULATIVE VOLUMES      L**3       RATES FOR THIS TIME STEP      L**3/T
     ------------------                 ------------------------

           IN:                                      IN:
           ---                                      ---
             STORAGE =       30006.7715               STORAGE =           1.3567
       CONSTANT HEAD =           0.0000         CONSTANT HEAD =           0.0000
               WELLS =           0.0000                 WELLS =           0.0000
     HEAD DEP BOUNDS =       90353.9922       HEAD DEP BOUNDS =         831.5126

            TOTAL IN =      120360.7656              TOTAL IN =         832.8693

          OUT:                                     OUT:
          ----                                     ----
             STORAGE =           0.0000               STORAGE =           0.0000
       CONSTANT HEAD =           0.0000         CONSTANT HEAD =           0.0000
               WELLS =       27000.0000                 WELLS =         500.0000
     HEAD DEP BOUNDS =       93361.0938       HEAD DEP BOUNDS =         332.8720

           TOTAL OUT =      120361.0938             TOTAL OUT =         832.8719

            IN - OUT =          -0.3281              IN - OUT =      -2.6245E-03

 PERCENT DISCREPANCY =          -0.00     PERCENT DISCREPANCY =          -0.00






         TIME SUMMARY AT END OF TIME STEP   54 IN STRESS PERIOD    3
                    SECONDS     MINUTES      HOURS       DAYS        YEARS
                    -----------------------------------------------------------
   TIME STEP LENGTH  86400.      1440.0      24.000      1.0000     2.73785E-03
 STRESS PERIOD TIME 4.66560E+06  77760.      1296.0      54.000     0.14784    
         TOTAL TIME 1.33920E+07 2.23200E+05  3720.0      155.00     0.42437    
1

 SOLVING FOR HEAD 

 OUTPUT CONTROL FOR STRESS PERIOD    3   TIME STEP   55
    SAVE HEAD FOR ALL LAYERS
    SAVE DRAWDOWN FOR ALL LAYERS
    SAVE BUDGET
    PRINT HEAD FOR ALL LAYERS
    PRINT BUDGET
 UBDSV1 SAVING "         STORAGE" ON UNIT  53 AT TIME STEP 55, STRESS PERIOD   3
 UBDSV2 SAVING "   CONSTANT HEAD" ON UNIT  53 AT TIME STEP 55, STRESS PERIOD   3
 UBDSV1 SAVING "FLOW RIGHT FACE " ON UNIT  53 AT TIME STEP 55, STRESS PERIOD   3
 UBDSV1 SAVING "FLOW FRONT FACE " ON UNIT  53 AT TIME STEP 55, STRESS PERIOD   3
1
              HEAD IN LAYER   1 AT END OF TIME STEP  55 IN STRESS PERIOD    3
  ---------------------------------------------------------------------------

            1           2           3           4           5           6           7           8           9          10
 ........................................................................................................................
   1    9.987       8.403       6.867       5.434       4.167       3.104       2.209       1.425      0.7022      6.9503E-03
   2    9.986       8.354       6.762       5.268       3.963       2.936       2.098       1.362      0.6750      6.6814E-03
   3    9.986       8.266       6.560       4.914       3.479       2.577       1.885       1.251      0.6286      6.2242E-03
   4    9.985       8.165       6.297       4.348       2.464       2.008       1.613       1.129      0.5819      5.7642E-03
   5    9.984       8.111       6.114       3.718      1.8041E-02   1.378       1.429       1.070      0.5639      5.5881E-03
   6    9.985       8.182       6.329       4.392       2.512       2.056       1.654       1.159      0.5976      5.9202E-03
   7    9.986       8.303       6.629       5.007       3.584       2.679       1.972       1.314      0.6616      6.5504E-03
   8    9.987       8.415       6.877       5.423       4.136       3.103       2.240       1.464      0.7278      7.2045E-03
   9    9.988       8.495       7.041       5.670       4.433       3.359       2.420       1.573      0.7785      7.7057E-03
  10    9.988       8.534       7.120       5.786       4.566       3.478       2.509       1.629      0.8053      7.9709E-03

 HEAD WILL BE SAVED ON UNIT   51 AT END OF TIME STEP   55, STRESS PERIOD    3

 DRAWDOWN WILL BE SAVED ON UNIT   52 AT END OF TIME STEP   55, STRESS PERIOD    3
1
  VOLUMETRIC BUDGET FOR ENTIRE MODEL AT END OF TIME STEP   55, STRESS PERIOD   3
  ------------------------------------------------------------------------------

     CUMULATIVE VOLUMES      L**3       RATES FOR THIS TIME STEP      L**3/T
     ------------------                 ------------------------

           IN:                                      IN:
           ---                                      ---
             STORAGE =       30007.9824               STORAGE =           1.2109
       CONSTANT HEAD =           0.0000         CONSTANT HEAD =           0.0000
               WELLS =           0.0000                 WELLS =           0.0000
     HEAD DEP BOUNDS =       91185.5781       HEAD DEP BOUNDS =         831.5848

            TOTAL IN =      121193.5625              TOTAL IN =         832.7957

          OUT:                                     OUT:
          ----                                     ----
             STORAGE =           0.0000               STORAGE =           0.0000
       CONSTANT HEAD =           0.0000         CONSTANT HEAD =           0.0000
               WELLS =       27500.0000                 WELLS =         500.0000
     HEAD DEP BOUNDS =       93693.8906       HEAD DEP BOUNDS =         332.7992

           TOTAL OUT =      121193.8906             TOTAL OUT =         832.7992

            IN - OUT =          -0.3281              IN - OUT =      -3.4790E-03

 PERCENT DISCREPANCY =          -0.00     PERCENT DISCREPANCY =          -0.00






         TIME SUMMARY AT END OF TIME STEP   55 IN STRESS PERIOD    3
                    SECONDS     MINUTES      HOURS       DAYS        YEARS
                    -----------------------------------------------------------
   TIME STEP LENGTH  86400.      1440.0      24.000      1.0000     2.73785E-03
 STRESS PERIOD TIME 4.75200E+06  79200.      1320.0      55.000     0.15058    
         TOTAL TIME 1.34784E+07 2.24640E+05  3744.0      156.00     0.42710    
1

 SOLVING FOR HEAD 

 OUTPUT CONTROL FOR STRESS PERIOD    3   TIME STEP   56
    SAVE HEAD FOR ALL LAYERS
    SAVE DRAWDOWN FOR ALL LAYERS
    SAVE BUDGET
    PRINT HEAD FOR ALL LAYERS
    PRINT BUDGET
 UBDSV1 SAVING "         STORAGE" ON UNIT  53 AT TIME STEP 56, STRESS PERIOD   3
 UBDSV2 SAVING "   CONSTANT HEAD" ON UNIT  53 AT TIME STEP 56, STRESS PERIOD   3
 UBDSV1 SAVING "FLOW RIGHT FACE " ON UNIT  53 AT TIME STEP 56, STRESS PERIOD   3
 UBDSV1 SAVING "FLOW FRONT FACE " ON UNIT  53 AT TIME STEP 56, STRESS PERIOD   3
1
              HEAD IN LAYER   1 AT END OF TIME STEP  56 IN STRESS PERIOD    3
  ---------------------------------------------------------------------------

            1           2           3           4           5           6           7           8           9          10
 ........................................................................................................................
   1    9.987       8.403       6.866       5.434       4.167       3.104       2.209       1.424      0.7021      6.9490E-03
   2    9.986       8.354       6.762       5.268       3.962       2.935       2.098       1.362      0.6749      6.6801E-03
   3    9.986       8.266       6.560       4.914       3.479       2.577       1.885       1.251      0.6285      6.2229E-03
   4    9.985       8.165       6.297       4.348       2.463       2.007       1.612       1.129      0.5818      5.7629E-03
   5    9.984       8.111       6.114       3.718      1.7666E-02   1.377       1.428       1.070      0.5638      5.5868E-03
   6    9.985       8.182       6.329       4.391       2.512       2.055       1.654       1.159      0.5975      5.9189E-03
   7    9.986       8.303       6.629       5.007       3.583       2.678       1.971       1.314      0.6614      6.5491E-03
   8    9.987       8.415       6.877       5.422       4.135       3.103       2.240       1.464      0.7277      7.2032E-03
   9    9.988       8.494       7.040       5.670       4.432       3.358       2.420       1.573      0.7784      7.7044E-03
  10    9.988       8.534       7.120       5.785       4.565       3.478       2.509       1.629      0.8052      7.9696E-03

 HEAD WILL BE SAVED ON UNIT   51 AT END OF TIME STEP   56, STRESS PERIOD    3

 DRAWDOWN WILL BE SAVED ON UNIT   52 AT END OF TIME STEP   56, STRESS PERIOD    3
1
  VOLUMETRIC BUDGET FOR ENTIRE MODEL AT END OF TIME STEP   56, STRESS PERIOD   3
  ------------------------------------------------------------------------------

     CUMULATIVE VOLUMES      L**3       RATES FOR THIS TIME STEP      L**3/T
     ------------------                 ------------------------

           IN:                                      IN:
           ---                                      ---
             STORAGE =       30009.0645               STORAGE =           1.0812
       CONSTANT HEAD =           0.0000         CONSTANT HEAD =           0.0000
               WELLS =           0.0000                 WELLS =           0.0000
     HEAD DEP BOUNDS =       92017.2266       HEAD DEP BOUNDS =         831.6491

            TOTAL IN =      122026.2891              TOTAL IN =         832.7303

          OUT:                                     OUT:
          ----                                     ----
             STORAGE =           0.0000               STORAGE =           0.0000
       CONSTANT HEAD =           0.0000         CONSTANT HEAD =           0.0000
               WELLS =       28000.0000                 WELLS =         500.0000
     HEAD DEP BOUNDS =       94026.6250       HEAD DEP BOUNDS =         332.7343

           TOTAL OUT =      122026.6250             TOTAL OUT =         832.7343

            IN - OUT =          -0.3359              IN - OUT =      -3.9062E-03

 PERCENT DISCREPANCY =          -0.00     PERCENT DISCREPANCY =          -0.00






         TIME SUMMARY AT END OF TIME STEP   56 IN STRESS PERIOD    3
                    SECONDS     MINUTES      HOURS       DAYS        YEARS
                    -----------------------------------------------------------
   TIME STEP LENGTH  86400.      1440.0      24.000      1.0000     2.73785E-03
 STRESS PERIOD TIME 4.83840E+06  80640.      1344.0      56.000     0.15332    
         TOTAL TIME 1.35648E+07 2.26080E+05  3768.0      157.00     0.42984    
1

 SOLVING FOR HEAD 

 OUTPUT CONTROL FOR STRESS PERIOD    3   TIME STEP   57
    SAVE HEAD FOR ALL LAYERS
    SAVE DRAWDOWN FOR ALL LAYERS
    SAVE BUDGET
    PRINT HEAD FOR ALL LAYERS
    PRINT BUDGET
 UBDSV1 SAVING "         STORAGE" ON UNIT  53 AT TIME STEP 57, STRESS PERIOD   3
 UBDSV2 SAVING "   CONSTANT HEAD" ON UNIT  53 AT TIME STEP 57, STRESS PERIOD   3
 UBDSV1 SAVING "FLOW RIGHT FACE " ON UNIT  53 AT TIME STEP 57, STRESS PERIOD   3
 UBDSV1 SAVING "FLOW FRONT FACE " ON UNIT  53 AT TIME STEP 57, STRESS PERIOD   3
1
              HEAD IN LAYER   1 AT END OF TIME STEP  57 IN STRESS PERIOD    3
  ---------------------------------------------------------------------------

            1           2           3           4           5           6           7           8           9          10
 ........................................................................................................................
   1    9.987       8.402       6.866       5.434       4.166       3.103       2.208       1.424      0.7020      6.9478E-03
   2    9.986       8.354       6.762       5.268       3.962       2.935       2.097       1.362      0.6748      6.6790E-03
   3    9.986       8.266       6.560       4.914       3.479       2.576       1.884       1.251      0.6284      6.2218E-03
   4    9.985       8.165       6.296       4.348       2.463       2.007       1.612       1.129      0.5816      5.7617E-03
   5    9.984       8.111       6.114       3.717      1.7332E-02   1.377       1.428       1.070      0.5636      5.5856E-03
   6    9.985       8.182       6.329       4.391       2.512       2.055       1.653       1.159      0.5974      5.9178E-03
   7    9.986       8.303       6.629       5.006       3.583       2.678       1.971       1.314      0.6613      6.5479E-03
   8    9.987       8.415       6.877       5.422       4.135       3.103       2.239       1.463      0.7276      7.2020E-03
   9    9.988       8.494       7.040       5.670       4.432       3.358       2.420       1.573      0.7783      7.7032E-03
  10    9.988       8.534       7.120       5.785       4.565       3.477       2.509       1.629      0.8051      7.9684E-03

 HEAD WILL BE SAVED ON UNIT   51 AT END OF TIME STEP   57, STRESS PERIOD    3

 DRAWDOWN WILL BE SAVED ON UNIT   52 AT END OF TIME STEP   57, STRESS PERIOD    3
1
  VOLUMETRIC BUDGET FOR ENTIRE MODEL AT END OF TIME STEP   57, STRESS PERIOD   3
  ------------------------------------------------------------------------------

     CUMULATIVE VOLUMES      L**3       RATES FOR THIS TIME STEP      L**3/T
     ------------------                 ------------------------

           IN:                                      IN:
           ---                                      ---
             STORAGE =       30010.0293               STORAGE =           0.9651
       CONSTANT HEAD =           0.0000         CONSTANT HEAD =           0.0000
               WELLS =           0.0000                 WELLS =           0.0000
     HEAD DEP BOUNDS =       92848.9375       HEAD DEP BOUNDS =         831.7104

            TOTAL IN =      122858.9688              TOTAL IN =         832.6755

          OUT:                                     OUT:
          ----                                     ----
             STORAGE =           0.0000               STORAGE =           0.0000
       CONSTANT HEAD =           0.0000         CONSTANT HEAD =           0.0000
               WELLS =       28500.0000                 WELLS =         500.0000
     HEAD DEP BOUNDS =       94359.3047       HEAD DEP BOUNDS =         332.6763

           TOTAL OUT =      122859.3047             TOTAL OUT =         832.6763

            IN - OUT =          -0.3359              IN - OUT =      -7.9346E-04

 PERCENT DISCREPANCY =          -0.00     PERCENT DISCREPANCY =          -0.00






         TIME SUMMARY AT END OF TIME STEP   57 IN STRESS PERIOD    3
                    SECONDS     MINUTES      HOURS       DAYS        YEARS
                    -----------------------------------------------------------
   TIME STEP LENGTH  86400.      1440.0      24.000      1.0000     2.73785E-03
 STRESS PERIOD TIME 4.92480E+06  82080.      1368.0      57.000     0.15606    
         TOTAL TIME 1.36512E+07 2.27520E+05  3792.0      158.00     0.43258    
1

 SOLVING FOR HEAD 

 OUTPUT CONTROL FOR STRESS PERIOD    3   TIME STEP   58
    SAVE HEAD FOR ALL LAYERS
    SAVE DRAWDOWN FOR ALL LAYERS
    SAVE BUDGET
    PRINT HEAD FOR ALL LAYERS
    PRINT BUDGET
 UBDSV1 SAVING "         STORAGE" ON UNIT  53 AT TIME STEP 58, STRESS PERIOD   3
 UBDSV2 SAVING "   CONSTANT HEAD" ON UNIT  53 AT TIME STEP 58, STRESS PERIOD   3
 UBDSV1 SAVING "FLOW RIGHT FACE " ON UNIT  53 AT TIME STEP 58, STRESS PERIOD   3
 UBDSV1 SAVING "FLOW FRONT FACE " ON UNIT  53 AT TIME STEP 58, STRESS PERIOD   3
1
              HEAD IN LAYER   1 AT END OF TIME STEP  58 IN STRESS PERIOD    3
  ---------------------------------------------------------------------------

            1           2           3           4           5           6           7           8           9          10
 ........................................................................................................................
   1    9.987       8.402       6.866       5.433       4.166       3.103       2.208       1.424      0.7019      6.9468E-03
   2    9.986       8.354       6.762       5.268       3.962       2.935       2.097       1.362      0.6747      6.6779E-03
   3    9.986       8.266       6.559       4.913       3.478       2.576       1.884       1.251      0.6283      6.2207E-03
   4    9.985       8.165       6.296       4.347       2.463       2.007       1.612       1.128      0.5815      5.7607E-03
   5    9.984       8.111       6.113       3.717      1.7033E-02   1.377       1.428       1.070      0.5635      5.5846E-03
   6    9.985       8.182       6.329       4.391       2.511       2.055       1.653       1.158      0.5973      5.9167E-03
   7    9.986       8.303       6.629       5.006       3.582       2.678       1.971       1.313      0.6612      6.5469E-03
   8    9.987       8.415       6.876       5.422       4.135       3.102       2.239       1.463      0.7275      7.2010E-03
   9    9.988       8.494       7.040       5.670       4.432       3.358       2.419       1.572      0.7782      7.7022E-03
  10    9.988       8.534       7.120       5.785       4.565       3.477       2.508       1.629      0.8050      7.9674E-03

 HEAD WILL BE SAVED ON UNIT   51 AT END OF TIME STEP   58, STRESS PERIOD    3

 DRAWDOWN WILL BE SAVED ON UNIT   52 AT END OF TIME STEP   58, STRESS PERIOD    3
1
  VOLUMETRIC BUDGET FOR ENTIRE MODEL AT END OF TIME STEP   58, STRESS PERIOD   3
  ------------------------------------------------------------------------------

     CUMULATIVE VOLUMES      L**3       RATES FOR THIS TIME STEP      L**3/T
     ------------------                 ------------------------

           IN:                                      IN:
           ---                                      ---
             STORAGE =       30010.8906               STORAGE =           0.8617
       CONSTANT HEAD =           0.0000         CONSTANT HEAD =           0.0000
               WELLS =           0.0000                 WELLS =           0.0000
     HEAD DEP BOUNDS =       93680.6953       HEAD DEP BOUNDS =         831.7617

            TOTAL IN =      123691.5859              TOTAL IN =         832.6234

          OUT:                                     OUT:
          ----                                     ----
             STORAGE =           0.0000               STORAGE =           0.0000
       CONSTANT HEAD =           0.0000         CONSTANT HEAD =           0.0000
               WELLS =       29000.0000                 WELLS =         500.0000
     HEAD DEP BOUNDS =       94691.9297       HEAD DEP BOUNDS =         332.6245

           TOTAL OUT =      123691.9297             TOTAL OUT =         832.6245

            IN - OUT =          -0.3438              IN - OUT =      -1.0986E-03

 PERCENT DISCREPANCY =          -0.00     PERCENT DISCREPANCY =          -0.00






         TIME SUMMARY AT END OF TIME STEP   58 IN STRESS PERIOD    3
                    SECONDS     MINUTES      HOURS       DAYS        YEARS
                    -----------------------------------------------------------
   TIME STEP LENGTH  86400.      1440.0      24.000      1.0000     2.73785E-03
 STRESS PERIOD TIME 5.01120E+06  83520.      1392.0      58.000     0.15880    
         TOTAL TIME 1.37376E+07 2.28960E+05  3816.0      159.00     0.43532    
1

 SOLVING FOR HEAD 

 OUTPUT CONTROL FOR STRESS PERIOD    3   TIME STEP   59
    SAVE HEAD FOR ALL LAYERS
    SAVE DRAWDOWN FOR ALL LAYERS
    SAVE BUDGET
    PRINT HEAD FOR ALL LAYERS
    PRINT BUDGET
 UBDSV1 SAVING "         STORAGE" ON UNIT  53 AT TIME STEP 59, STRESS PERIOD   3
 UBDSV2 SAVING "   CONSTANT HEAD" ON UNIT  53 AT TIME STEP 59, STRESS PERIOD   3
 UBDSV1 SAVING "FLOW RIGHT FACE " ON UNIT  53 AT TIME STEP 59, STRESS PERIOD   3
 UBDSV1 SAVING "FLOW FRONT FACE " ON UNIT  53 AT TIME STEP 59, STRESS PERIOD   3
1
              HEAD IN LAYER   1 AT END OF TIME STEP  59 IN STRESS PERIOD    3
  ---------------------------------------------------------------------------

            1           2           3           4           5           6           7           8           9          10
 ........................................................................................................................
   1    9.987       8.402       6.866       5.433       4.166       3.103       2.208       1.424      0.7018      6.9458E-03
   2    9.986       8.354       6.762       5.267       3.962       2.934       2.097       1.361      0.6746      6.6770E-03
   3    9.986       8.266       6.559       4.913       3.478       2.576       1.884       1.250      0.6282      6.2198E-03
   4    9.985       8.164       6.296       4.347       2.462       2.007       1.612       1.128      0.5814      5.7597E-03
   5    9.984       8.111       6.113       3.717      1.6767E-02   1.376       1.428       1.069      0.5634      5.5837E-03
   6    9.985       8.182       6.329       4.391       2.511       2.055       1.653       1.158      0.5972      5.9158E-03
   7    9.986       8.303       6.628       5.006       3.582       2.677       1.971       1.313      0.6611      6.5460E-03
   8    9.987       8.415       6.876       5.421       4.134       3.102       2.239       1.463      0.7274      7.2001E-03
   9    9.988       8.494       7.040       5.669       4.431       3.357       2.419       1.572      0.7781      7.7013E-03
  10    9.988       8.534       7.119       5.784       4.564       3.477       2.508       1.629      0.8049      7.9665E-03

 HEAD WILL BE SAVED ON UNIT   51 AT END OF TIME STEP   59, STRESS PERIOD    3

 DRAWDOWN WILL BE SAVED ON UNIT   52 AT END OF TIME STEP   59, STRESS PERIOD    3
1
  VOLUMETRIC BUDGET FOR ENTIRE MODEL AT END OF TIME STEP   59, STRESS PERIOD   3
  ------------------------------------------------------------------------------

     CUMULATIVE VOLUMES      L**3       RATES FOR THIS TIME STEP      L**3/T
     ------------------                 ------------------------

           IN:                                      IN:
           ---                                      ---
             STORAGE =       30011.6602               STORAGE =           0.7693
       CONSTANT HEAD =           0.0000         CONSTANT HEAD =           0.0000
               WELLS =           0.0000                 WELLS =           0.0000
     HEAD DEP BOUNDS =       94512.5000       HEAD DEP BOUNDS =         831.8074

            TOTAL IN =      124524.1562              TOTAL IN =         832.5767

          OUT:                                     OUT:
          ----                                     ----
             STORAGE =           0.0000               STORAGE =           0.0000
       CONSTANT HEAD =           0.0000         CONSTANT HEAD =           0.0000
               WELLS =       29500.0000                 WELLS =         500.0000
     HEAD DEP BOUNDS =       95024.5078       HEAD DEP BOUNDS =         332.5783

           TOTAL OUT =      124524.5078             TOTAL OUT =         832.5783

            IN - OUT =          -0.3516              IN - OUT =      -1.5869E-03

 PERCENT DISCREPANCY =          -0.00     PERCENT DISCREPANCY =          -0.00






         TIME SUMMARY AT END OF TIME STEP   59 IN STRESS PERIOD    3
                    SECONDS     MINUTES      HOURS       DAYS        YEARS
                    -----------------------------------------------------------
   TIME STEP LENGTH  86400.      1440.0      24.000      1.0000     2.73785E-03
 STRESS PERIOD TIME 5.09760E+06  84960.      1416.0      59.000     0.16153    
         TOTAL TIME 1.38240E+07 2.30400E+05  3840.0      160.00     0.43806    
1

 SOLVING FOR HEAD 

 OUTPUT CONTROL FOR STRESS PERIOD    3   TIME STEP   60
    SAVE HEAD FOR ALL LAYERS
    SAVE DRAWDOWN FOR ALL LAYERS
    SAVE BUDGET
    PRINT HEAD FOR ALL LAYERS
    PRINT BUDGET
 UBDSV1 SAVING "         STORAGE" ON UNIT  53 AT TIME STEP 60, STRESS PERIOD   3
 UBDSV2 SAVING "   CONSTANT HEAD" ON UNIT  53 AT TIME STEP 60, STRESS PERIOD   3
 UBDSV1 SAVING "FLOW RIGHT FACE " ON UNIT  53 AT TIME STEP 60, STRESS PERIOD   3
 UBDSV1 SAVING "FLOW FRONT FACE " ON UNIT  53 AT TIME STEP 60, STRESS PERIOD   3
1
              HEAD IN LAYER   1 AT END OF TIME STEP  60 IN STRESS PERIOD    3
  ---------------------------------------------------------------------------

            1           2           3           4           5           6           7           8           9          10
 ........................................................................................................................
   1    9.987       8.402       6.866       5.433       4.166       3.103       2.208       1.424      0.7017      6.9450E-03
   2    9.986       8.354       6.761       5.267       3.961       2.934       2.097       1.361      0.6745      6.6762E-03
   3    9.986       8.266       6.559       4.913       3.478       2.576       1.884       1.250      0.6281      6.2190E-03
   4    9.985       8.164       6.296       4.347       2.462       2.006       1.611       1.128      0.5814      5.7589E-03
   5    9.984       8.111       6.113       3.717      1.6529E-02   1.376       1.427       1.069      0.5634      5.5829E-03
   6    9.985       8.182       6.328       4.390       2.511       2.054       1.653       1.158      0.5971      5.9150E-03
   7    9.986       8.303       6.628       5.006       3.582       2.677       1.970       1.313      0.6610      6.5451E-03
   8    9.987       8.415       6.876       5.421       4.134       3.102       2.239       1.463      0.7273      7.1992E-03
   9    9.988       8.494       7.040       5.669       4.431       3.357       2.419       1.572      0.7780      7.7005E-03
  10    9.988       8.534       7.119       5.784       4.564       3.476       2.508       1.628      0.8048      7.9656E-03

 HEAD WILL BE SAVED ON UNIT   51 AT END OF TIME STEP   60, STRESS PERIOD    3

 DRAWDOWN WILL BE SAVED ON UNIT   52 AT END OF TIME STEP   60, STRESS PERIOD    3
1
  VOLUMETRIC BUDGET FOR ENTIRE MODEL AT END OF TIME STEP   60, STRESS PERIOD   3
  ------------------------------------------------------------------------------

     CUMULATIVE VOLUMES      L**3       RATES FOR THIS TIME STEP      L**3/T
     ------------------                 ------------------------

           IN:                                      IN:
           ---                                      ---
             STORAGE =       30012.3477               STORAGE =           0.6867
       CONSTANT HEAD =           0.0000         CONSTANT HEAD =           0.0000
               WELLS =           0.0000                 WELLS =           0.0000
     HEAD DEP BOUNDS =       95344.3516       HEAD DEP BOUNDS =         831.8483

            TOTAL IN =      125356.7031              TOTAL IN =         832.5350

          OUT:                                     OUT:
          ----                                     ----
             STORAGE =           0.0000               STORAGE =           0.0000
       CONSTANT HEAD =           0.0000         CONSTANT HEAD =           0.0000
               WELLS =       30000.0000                 WELLS =         500.0000
     HEAD DEP BOUNDS =       95357.0469       HEAD DEP BOUNDS =         332.5370

           TOTAL OUT =      125357.0469             TOTAL OUT =         832.5370

            IN - OUT =          -0.3438              IN - OUT =      -2.0142E-03

 PERCENT DISCREPANCY =          -0.00     PERCENT DISCREPANCY =          -0.00






         TIME SUMMARY AT END OF TIME STEP   60 IN STRESS PERIOD    3
                    SECONDS     MINUTES      HOURS       DAYS        YEARS
                    -----------------------------------------------------------
   TIME STEP LENGTH  86400.      1440.0      24.000      1.0000     2.73785E-03
 STRESS PERIOD TIME 5.18400E+06  86400.      1440.0      60.000     0.16427    
         TOTAL TIME 1.39104E+07 2.31840E+05  3864.0      161.00     0.44079    
1

 SOLVING FOR HEAD 

 OUTPUT CONTROL FOR STRESS PERIOD    3   TIME STEP   61
    SAVE HEAD FOR ALL LAYERS
    SAVE DRAWDOWN FOR ALL LAYERS
    SAVE BUDGET
    PRINT HEAD FOR ALL LAYERS
    PRINT BUDGET
 UBDSV1 SAVING "         STORAGE" ON UNIT  53 AT TIME STEP 61, STRESS PERIOD   3
 UBDSV2 SAVING "   CONSTANT HEAD" ON UNIT  53 AT TIME STEP 61, STRESS PERIOD   3
 UBDSV1 SAVING "FLOW RIGHT FACE " ON UNIT  53 AT TIME STEP 61, STRESS PERIOD   3
 UBDSV1 SAVING "FLOW FRONT FACE " ON UNIT  53 AT TIME STEP 61, STRESS PERIOD   3
1
              HEAD IN LAYER   1 AT END OF TIME STEP  61 IN STRESS PERIOD    3
  ---------------------------------------------------------------------------

            1           2           3           4           5           6           7           8           9          10
 ........................................................................................................................
   1    9.987       8.402       6.865       5.433       4.165       3.102       2.208       1.423      0.7016      6.9443E-03
   2    9.986       8.354       6.761       5.267       3.961       2.934       2.097       1.361      0.6744      6.6754E-03
   3    9.986       8.266       6.559       4.913       3.478       2.575       1.883       1.250      0.6280      6.2182E-03
   4    9.985       8.164       6.296       4.347       2.462       2.006       1.611       1.128      0.5813      5.7582E-03
   5    9.984       8.111       6.113       3.717      1.6316E-02   1.376       1.427       1.069      0.5633      5.5821E-03
   6    9.985       8.182       6.328       4.390       2.511       2.054       1.652       1.158      0.5970      5.9143E-03
   7    9.986       8.303       6.628       5.005       3.582       2.677       1.970       1.313      0.6610      6.5444E-03
   8    9.987       8.415       6.876       5.421       4.134       3.102       2.238       1.463      0.7272      7.1985E-03
   9    9.988       8.494       7.040       5.669       4.431       3.357       2.419       1.572      0.7779      7.6997E-03
  10    9.988       8.534       7.119       5.784       4.564       3.476       2.508       1.628      0.8047      7.9649E-03

 HEAD WILL BE SAVED ON UNIT   51 AT END OF TIME STEP   61, STRESS PERIOD    3

 DRAWDOWN WILL BE SAVED ON UNIT   52 AT END OF TIME STEP   61, STRESS PERIOD    3
1
  VOLUMETRIC BUDGET FOR ENTIRE MODEL AT END OF TIME STEP   61, STRESS PERIOD   3
  ------------------------------------------------------------------------------

     CUMULATIVE VOLUMES      L**3       RATES FOR THIS TIME STEP      L**3/T
     ------------------                 ------------------------

           IN:                                      IN:
           ---                                      ---
             STORAGE =       30012.9609               STORAGE =           0.6131
       CONSTANT HEAD =           0.0000         CONSTANT HEAD =           0.0000
               WELLS =           0.0000                 WELLS =           0.0000
     HEAD DEP BOUNDS =       96176.2344       HEAD DEP BOUNDS =         831.8848

            TOTAL IN =      126189.1953              TOTAL IN =         832.4979

          OUT:                                     OUT:
          ----                                     ----
             STORAGE =           0.0000               STORAGE =           0.0000
       CONSTANT HEAD =           0.0000         CONSTANT HEAD =           0.0000
               WELLS =       30500.0000                 WELLS =         500.0000
     HEAD DEP BOUNDS =       95689.5469       HEAD DEP BOUNDS =         332.5002

           TOTAL OUT =      126189.5469             TOTAL OUT =         832.5002

            IN - OUT =          -0.3516              IN - OUT =      -2.3193E-03

 PERCENT DISCREPANCY =          -0.00     PERCENT DISCREPANCY =          -0.00






         TIME SUMMARY AT END OF TIME STEP   61 IN STRESS PERIOD    3
                    SECONDS     MINUTES      HOURS       DAYS        YEARS
                    -----------------------------------------------------------
   TIME STEP LENGTH  86400.      1440.0      24.000      1.0000     2.73785E-03
 STRESS PERIOD TIME 5.27040E+06  87840.      1464.0      61.000     0.16701    
         TOTAL TIME 1.39968E+07 2.33280E+05  3888.0      162.00     0.44353    
1

 SOLVING FOR HEAD 

 OUTPUT CONTROL FOR STRESS PERIOD    3   TIME STEP   62
    SAVE HEAD FOR ALL LAYERS
    SAVE DRAWDOWN FOR ALL LAYERS
    SAVE BUDGET
    PRINT HEAD FOR ALL LAYERS
    PRINT BUDGET
 UBDSV1 SAVING "         STORAGE" ON UNIT  53 AT TIME STEP 62, STRESS PERIOD   3
 UBDSV2 SAVING "   CONSTANT HEAD" ON UNIT  53 AT TIME STEP 62, STRESS PERIOD   3
 UBDSV1 SAVING "FLOW RIGHT FACE " ON UNIT  53 AT TIME STEP 62, STRESS PERIOD   3
 UBDSV1 SAVING "FLOW FRONT FACE " ON UNIT  53 AT TIME STEP 62, STRESS PERIOD   3
1
              HEAD IN LAYER   1 AT END OF TIME STEP  62 IN STRESS PERIOD    3
  ---------------------------------------------------------------------------

            1           2           3           4           5           6           7           8           9          10
 ........................................................................................................................
   1    9.987       8.402       6.865       5.432       4.165       3.102       2.207       1.423      0.7016      6.9436E-03
   2    9.986       8.354       6.761       5.267       3.961       2.934       2.096       1.361      0.6743      6.6748E-03
   3    9.986       8.266       6.559       4.912       3.478       2.575       1.883       1.250      0.6280      6.2176E-03
   4    9.985       8.164       6.296       4.347       2.462       2.006       1.611       1.128      0.5812      5.7575E-03
   5    9.984       8.111       6.113       3.716      1.6126E-02   1.376       1.427       1.069      0.5632      5.5815E-03
   6    9.985       8.182       6.328       4.390       2.510       2.054       1.652       1.158      0.5970      5.9136E-03
   7    9.986       8.303       6.628       5.005       3.582       2.677       1.970       1.313      0.6609      6.5438E-03
   8    9.987       8.415       6.876       5.421       4.134       3.101       2.238       1.463      0.7271      7.1978E-03
   9    9.988       8.494       7.039       5.669       4.431       3.357       2.419       1.572      0.7778      7.6991E-03
  10    9.988       8.534       7.119       5.784       4.564       3.476       2.508       1.628      0.8047      7.9642E-03

 HEAD WILL BE SAVED ON UNIT   51 AT END OF TIME STEP   62, STRESS PERIOD    3

 DRAWDOWN WILL BE SAVED ON UNIT   52 AT END OF TIME STEP   62, STRESS PERIOD    3
1
  VOLUMETRIC BUDGET FOR ENTIRE MODEL AT END OF TIME STEP   62, STRESS PERIOD   3
  ------------------------------------------------------------------------------

     CUMULATIVE VOLUMES      L**3       RATES FOR THIS TIME STEP      L**3/T
     ------------------                 ------------------------

           IN:                                      IN:
           ---                                      ---
             STORAGE =       30013.5078               STORAGE =           0.5473
       CONSTANT HEAD =           0.0000         CONSTANT HEAD =           0.0000
               WELLS =           0.0000                 WELLS =           0.0000
     HEAD DEP BOUNDS =       97008.1484       HEAD DEP BOUNDS =         831.9174

            TOTAL IN =      127021.6562              TOTAL IN =         832.4647

          OUT:                                     OUT:
          ----                                     ----
             STORAGE =           0.0000               STORAGE =           0.0000
       CONSTANT HEAD =           0.0000         CONSTANT HEAD =           0.0000
               WELLS =       31000.0000                 WELLS =         500.0000
     HEAD DEP BOUNDS =       96022.0156       HEAD DEP BOUNDS =         332.4673

           TOTAL OUT =      127022.0156             TOTAL OUT =         832.4673

            IN - OUT =          -0.3594              IN - OUT =      -2.6245E-03

 PERCENT DISCREPANCY =          -0.00     PERCENT DISCREPANCY =          -0.00






         TIME SUMMARY AT END OF TIME STEP   62 IN STRESS PERIOD    3
                    SECONDS     MINUTES      HOURS       DAYS        YEARS
                    -----------------------------------------------------------
   TIME STEP LENGTH  86400.      1440.0      24.000      1.0000     2.73785E-03
 STRESS PERIOD TIME 5.35680E+06  89280.      1488.0      62.000     0.16975    
         TOTAL TIME 1.40832E+07 2.34720E+05  3912.0      163.00     0.44627    
1

 SOLVING FOR HEAD 

 OUTPUT CONTROL FOR STRESS PERIOD    3   TIME STEP   63
    SAVE HEAD FOR ALL LAYERS
    SAVE DRAWDOWN FOR ALL LAYERS
    SAVE BUDGET
    PRINT HEAD FOR ALL LAYERS
    PRINT BUDGET
 UBDSV1 SAVING "         STORAGE" ON UNIT  53 AT TIME STEP 63, STRESS PERIOD   3
 UBDSV2 SAVING "   CONSTANT HEAD" ON UNIT  53 AT TIME STEP 63, STRESS PERIOD   3
 UBDSV1 SAVING "FLOW RIGHT FACE " ON UNIT  53 AT TIME STEP 63, STRESS PERIOD   3
 UBDSV1 SAVING "FLOW FRONT FACE " ON UNIT  53 AT TIME STEP 63, STRESS PERIOD   3
1
              HEAD IN LAYER   1 AT END OF TIME STEP  63 IN STRESS PERIOD    3
  ---------------------------------------------------------------------------

            1           2           3           4           5           6           7           8           9          10
 ........................................................................................................................
   1    9.987       8.402       6.865       5.432       4.165       3.102       2.207       1.423      0.7015      6.9430E-03
   2    9.986       8.354       6.761       5.267       3.961       2.934       2.096       1.361      0.6743      6.6742E-03
   3    9.986       8.266       6.559       4.912       3.477       2.575       1.883       1.250      0.6279      6.2170E-03
   4    9.985       8.164       6.296       4.346       2.461       2.006       1.611       1.128      0.5812      5.7569E-03
   5    9.984       8.111       6.113       3.716      1.5957E-02   1.376       1.427       1.069      0.5632      5.5809E-03
   6    9.985       8.182       6.328       4.390       2.510       2.054       1.652       1.158      0.5969      5.9130E-03
   7    9.986       8.303       6.628       5.005       3.581       2.677       1.970       1.313      0.6608      6.5432E-03
   8    9.987       8.415       6.876       5.421       4.134       3.101       2.238       1.462      0.7271      7.1973E-03
   9    9.988       8.494       7.039       5.669       4.431       3.357       2.419       1.572      0.7778      7.6985E-03
  10    9.988       8.534       7.119       5.784       4.563       3.476       2.508       1.628      0.8046      7.9637E-03

 HEAD WILL BE SAVED ON UNIT   51 AT END OF TIME STEP   63, STRESS PERIOD    3

 DRAWDOWN WILL BE SAVED ON UNIT   52 AT END OF TIME STEP   63, STRESS PERIOD    3
1
  VOLUMETRIC BUDGET FOR ENTIRE MODEL AT END OF TIME STEP   63, STRESS PERIOD   3
  ------------------------------------------------------------------------------

     CUMULATIVE VOLUMES      L**3       RATES FOR THIS TIME STEP      L**3/T
     ------------------                 ------------------------

           IN:                                      IN:
           ---                                      ---
             STORAGE =       30013.9961               STORAGE =           0.4885
       CONSTANT HEAD =           0.0000         CONSTANT HEAD =           0.0000
               WELLS =           0.0000                 WELLS =           0.0000
     HEAD DEP BOUNDS =       97840.0938       HEAD DEP BOUNDS =         831.9465

            TOTAL IN =      127854.0938              TOTAL IN =         832.4350

          OUT:                                     OUT:
          ----                                     ----
             STORAGE =           0.0000               STORAGE =           0.0000
       CONSTANT HEAD =           0.0000         CONSTANT HEAD =           0.0000
               WELLS =       31500.0000                 WELLS =         500.0000
     HEAD DEP BOUNDS =       96354.4531       HEAD DEP BOUNDS =         332.4380

           TOTAL OUT =      127854.4531             TOTAL OUT =         832.4380

            IN - OUT =          -0.3594              IN - OUT =      -2.9907E-03

 PERCENT DISCREPANCY =          -0.00     PERCENT DISCREPANCY =          -0.00






         TIME SUMMARY AT END OF TIME STEP   63 IN STRESS PERIOD    3
                    SECONDS     MINUTES      HOURS       DAYS        YEARS
                    -----------------------------------------------------------
   TIME STEP LENGTH  86400.      1440.0      24.000      1.0000     2.73785E-03
 STRESS PERIOD TIME 5.44320E+06  90720.      1512.0      63.000     0.17248    
         TOTAL TIME 1.41696E+07 2.36160E+05  3936.0      164.00     0.44901    
1

 SOLVING FOR HEAD 

 OUTPUT CONTROL FOR STRESS PERIOD    3   TIME STEP   64
    SAVE HEAD FOR ALL LAYERS
    SAVE DRAWDOWN FOR ALL LAYERS
    SAVE BUDGET
    PRINT HEAD FOR ALL LAYERS
    PRINT BUDGET
 UBDSV1 SAVING "         STORAGE" ON UNIT  53 AT TIME STEP 64, STRESS PERIOD   3
 UBDSV2 SAVING "   CONSTANT HEAD" ON UNIT  53 AT TIME STEP 64, STRESS PERIOD   3
 UBDSV1 SAVING "FLOW RIGHT FACE " ON UNIT  53 AT TIME STEP 64, STRESS PERIOD   3
 UBDSV1 SAVING "FLOW FRONT FACE " ON UNIT  53 AT TIME STEP 64, STRESS PERIOD   3
1
              HEAD IN LAYER   1 AT END OF TIME STEP  64 IN STRESS PERIOD    3
  ---------------------------------------------------------------------------

            1           2           3           4           5           6           7           8           9          10
 ........................................................................................................................
   1    9.987       8.402       6.865       5.432       4.165       3.102       2.207       1.423      0.7015      6.9425E-03
   2    9.986       8.354       6.761       5.267       3.961       2.933       2.096       1.361      0.6742      6.6737E-03
   3    9.986       8.266       6.559       4.912       3.477       2.575       1.883       1.250      0.6279      6.2165E-03
   4    9.985       8.164       6.295       4.346       2.461       2.006       1.611       1.128      0.5811      5.7564E-03
   5    9.984       8.111       6.113       3.716      1.5806E-02   1.375       1.427       1.069      0.5631      5.5804E-03
   6    9.985       8.182       6.328       4.390       2.510       2.054       1.652       1.158      0.5969      5.9125E-03
   7    9.986       8.303       6.628       5.005       3.581       2.676       1.970       1.313      0.6608      6.5426E-03
   8    9.987       8.415       6.876       5.421       4.133       3.101       2.238       1.462      0.7270      7.1967E-03
   9    9.988       8.494       7.039       5.668       4.430       3.356       2.418       1.572      0.7777      7.6980E-03
  10    9.988       8.533       7.119       5.784       4.563       3.476       2.507       1.628      0.8045      7.9631E-03

 HEAD WILL BE SAVED ON UNIT   51 AT END OF TIME STEP   64, STRESS PERIOD    3

 DRAWDOWN WILL BE SAVED ON UNIT   52 AT END OF TIME STEP   64, STRESS PERIOD    3
1
  VOLUMETRIC BUDGET FOR ENTIRE MODEL AT END OF TIME STEP   64, STRESS PERIOD   3
  ------------------------------------------------------------------------------

     CUMULATIVE VOLUMES      L**3       RATES FOR THIS TIME STEP      L**3/T
     ------------------                 ------------------------

           IN:                                      IN:
           ---                                      ---
             STORAGE =       30014.4316               STORAGE =           0.4360
       CONSTANT HEAD =           0.0000         CONSTANT HEAD =           0.0000
               WELLS =           0.0000                 WELLS =           0.0000
     HEAD DEP BOUNDS =       98672.0625       HEAD DEP BOUNDS =         831.9724

            TOTAL IN =      128686.4922              TOTAL IN =         832.4084

          OUT:                                     OUT:
          ----                                     ----
             STORAGE =           0.0000               STORAGE =           0.0000
       CONSTANT HEAD =           0.0000         CONSTANT HEAD =           0.0000
               WELLS =       32000.0000                 WELLS =         500.0000
     HEAD DEP BOUNDS =       96686.8672       HEAD DEP BOUNDS =         332.4118

           TOTAL OUT =      128686.8672             TOTAL OUT =         832.4118

            IN - OUT =          -0.3750              IN - OUT =      -3.3569E-03

 PERCENT DISCREPANCY =          -0.00     PERCENT DISCREPANCY =          -0.00






         TIME SUMMARY AT END OF TIME STEP   64 IN STRESS PERIOD    3
                    SECONDS     MINUTES      HOURS       DAYS        YEARS
                    -----------------------------------------------------------
   TIME STEP LENGTH  86400.      1440.0      24.000      1.0000     2.73785E-03
 STRESS PERIOD TIME 5.52960E+06  92160.      1536.0      64.000     0.17522    
         TOTAL TIME 1.42560E+07 2.37600E+05  3960.0      165.00     0.45175    
1

 SOLVING FOR HEAD 

 OUTPUT CONTROL FOR STRESS PERIOD    3   TIME STEP   65
    SAVE HEAD FOR ALL LAYERS
    SAVE DRAWDOWN FOR ALL LAYERS
    SAVE BUDGET
    PRINT HEAD FOR ALL LAYERS
    PRINT BUDGET
 UBDSV1 SAVING "         STORAGE" ON UNIT  53 AT TIME STEP 65, STRESS PERIOD   3
 UBDSV2 SAVING "   CONSTANT HEAD" ON UNIT  53 AT TIME STEP 65, STRESS PERIOD   3
 UBDSV1 SAVING "FLOW RIGHT FACE " ON UNIT  53 AT TIME STEP 65, STRESS PERIOD   3
 UBDSV1 SAVING "FLOW FRONT FACE " ON UNIT  53 AT TIME STEP 65, STRESS PERIOD   3
1
              HEAD IN LAYER   1 AT END OF TIME STEP  65 IN STRESS PERIOD    3
  ---------------------------------------------------------------------------

            1           2           3           4           5           6           7           8           9          10
 ........................................................................................................................
   1    9.987       8.402       6.865       5.432       4.165       3.102       2.207       1.423      0.7014      6.9420E-03
   2    9.986       8.354       6.761       5.266       3.960       2.933       2.096       1.361      0.6742      6.6732E-03
   3    9.986       8.265       6.558       4.912       3.477       2.575       1.883       1.250      0.6278      6.2160E-03
   4    9.985       8.164       6.295       4.346       2.461       2.005       1.611       1.128      0.5811      5.7559E-03
   5    9.984       8.111       6.112       3.716      1.5671E-02   1.375       1.427       1.069      0.5631      5.5799E-03
   6    9.985       8.181       6.328       4.390       2.510       2.053       1.652       1.158      0.5968      5.9120E-03
   7    9.986       8.302       6.628       5.005       3.581       2.676       1.970       1.313      0.6607      6.5422E-03
   8    9.987       8.415       6.876       5.421       4.133       3.101       2.238       1.462      0.7270      7.1963E-03
   9    9.988       8.494       7.039       5.668       4.430       3.356       2.418       1.572      0.7777      7.6975E-03
  10    9.988       8.533       7.119       5.783       4.563       3.476       2.507       1.628      0.8045      7.9627E-03

 HEAD WILL BE SAVED ON UNIT   51 AT END OF TIME STEP   65, STRESS PERIOD    3

 DRAWDOWN WILL BE SAVED ON UNIT   52 AT END OF TIME STEP   65, STRESS PERIOD    3
1
  VOLUMETRIC BUDGET FOR ENTIRE MODEL AT END OF TIME STEP   65, STRESS PERIOD   3
  ------------------------------------------------------------------------------

     CUMULATIVE VOLUMES      L**3       RATES FOR THIS TIME STEP      L**3/T
     ------------------                 ------------------------

           IN:                                      IN:
           ---                                      ---
             STORAGE =       30014.8203               STORAGE =           0.3895
       CONSTANT HEAD =           0.0000         CONSTANT HEAD =           0.0000
               WELLS =           0.0000                 WELLS =           0.0000
     HEAD DEP BOUNDS =       99504.0547       HEAD DEP BOUNDS =         831.9955

            TOTAL IN =      129518.8750              TOTAL IN =         832.3850

          OUT:                                     OUT:
          ----                                     ----
             STORAGE =           0.0000               STORAGE =           0.0000
       CONSTANT HEAD =           0.0000         CONSTANT HEAD =           0.0000
               WELLS =       32500.0000                 WELLS =         500.0000
     HEAD DEP BOUNDS =       97019.2578       HEAD DEP BOUNDS =         332.3884

           TOTAL OUT =      129519.2578             TOTAL OUT =         832.3884

            IN - OUT =          -0.3828              IN - OUT =      -3.4180E-03

 PERCENT DISCREPANCY =          -0.00     PERCENT DISCREPANCY =          -0.00






         TIME SUMMARY AT END OF TIME STEP   65 IN STRESS PERIOD    3
                    SECONDS     MINUTES      HOURS       DAYS        YEARS
                    -----------------------------------------------------------
   TIME STEP LENGTH  86400.      1440.0      24.000      1.0000     2.73785E-03
 STRESS PERIOD TIME 5.61600E+06  93600.      1560.0      65.000     0.17796    
         TOTAL TIME 1.43424E+07 2.39040E+05  3984.0      166.00     0.45448    
1

 SOLVING FOR HEAD 

 OUTPUT CONTROL FOR STRESS PERIOD    3   TIME STEP   66
    SAVE HEAD FOR ALL LAYERS
    SAVE DRAWDOWN FOR ALL LAYERS
    SAVE BUDGET
    PRINT HEAD FOR ALL LAYERS
    PRINT BUDGET
 UBDSV1 SAVING "         STORAGE" ON UNIT  53 AT TIME STEP 66, STRESS PERIOD   3
 UBDSV2 SAVING "   CONSTANT HEAD" ON UNIT  53 AT TIME STEP 66, STRESS PERIOD   3
 UBDSV1 SAVING "FLOW RIGHT FACE " ON UNIT  53 AT TIME STEP 66, STRESS PERIOD   3
 UBDSV1 SAVING "FLOW FRONT FACE " ON UNIT  53 AT TIME STEP 66, STRESS PERIOD   3
1
              HEAD IN LAYER   1 AT END OF TIME STEP  66 IN STRESS PERIOD    3
  ---------------------------------------------------------------------------

            1           2           3           4           5           6           7           8           9          10
 ........................................................................................................................
   1    9.987       8.402       6.865       5.432       4.165       3.102       2.207       1.423      0.7014      6.9416E-03
   2    9.986       8.354       6.761       5.266       3.960       2.933       2.096       1.361      0.6741      6.6728E-03
   3    9.986       8.265       6.558       4.912       3.477       2.575       1.883       1.250      0.6278      6.2156E-03
   4    9.985       8.164       6.295       4.346       2.461       2.005       1.611       1.128      0.5810      5.7555E-03
   5    9.984       8.111       6.112       3.716      1.5551E-02   1.375       1.427       1.069      0.5630      5.5795E-03
   6    9.985       8.181       6.328       4.390       2.510       2.053       1.652       1.157      0.5968      5.9116E-03
   7    9.986       8.302       6.628       5.005       3.581       2.676       1.970       1.312      0.6607      6.5418E-03
   8    9.987       8.415       6.875       5.420       4.133       3.101       2.238       1.462      0.7269      7.1958E-03
   9    9.988       8.494       7.039       5.668       4.430       3.356       2.418       1.571      0.7776      7.6971E-03
  10    9.988       8.533       7.119       5.783       4.563       3.476       2.507       1.628      0.8045      7.9622E-03

 HEAD WILL BE SAVED ON UNIT   51 AT END OF TIME STEP   66, STRESS PERIOD    3

 DRAWDOWN WILL BE SAVED ON UNIT   52 AT END OF TIME STEP   66, STRESS PERIOD    3
1
  VOLUMETRIC BUDGET FOR ENTIRE MODEL AT END OF TIME STEP   66, STRESS PERIOD   3
  ------------------------------------------------------------------------------

     CUMULATIVE VOLUMES      L**3       RATES FOR THIS TIME STEP      L**3/T
     ------------------                 ------------------------

           IN:                                      IN:
           ---                                      ---
             STORAGE =       30015.1680               STORAGE =           0.3475
       CONSTANT HEAD =           0.0000         CONSTANT HEAD =           0.0000
               WELLS =           0.0000                 WELLS =           0.0000
     HEAD DEP BOUNDS =      100336.0781       HEAD DEP BOUNDS =         832.0201

            TOTAL IN =      130351.2500              TOTAL IN =         832.3676

          OUT:                                     OUT:
          ----                                     ----
             STORAGE =           0.0000               STORAGE =           0.0000
       CONSTANT HEAD =           0.0000         CONSTANT HEAD =           0.0000
               WELLS =       33000.0000                 WELLS =         500.0000
     HEAD DEP BOUNDS =       97351.6250       HEAD DEP BOUNDS =         332.3675

           TOTAL OUT =      130351.6250             TOTAL OUT =         832.3676

            IN - OUT =          -0.3750              IN - OUT =       6.1035E-05

 PERCENT DISCREPANCY =          -0.00     PERCENT DISCREPANCY =           0.00






         TIME SUMMARY AT END OF TIME STEP   66 IN STRESS PERIOD    3
                    SECONDS     MINUTES      HOURS       DAYS        YEARS
                    -----------------------------------------------------------
   TIME STEP LENGTH  86400.      1440.0      24.000      1.0000     2.73785E-03
 STRESS PERIOD TIME 5.70240E+06  95040.      1584.0      66.000     0.18070    
         TOTAL TIME 1.44288E+07 2.40480E+05  4008.0      167.00     0.45722    
1

 SOLVING FOR HEAD 

 OUTPUT CONTROL FOR STRESS PERIOD    3   TIME STEP   67
    SAVE HEAD FOR ALL LAYERS
    SAVE DRAWDOWN FOR ALL LAYERS
    SAVE BUDGET
    PRINT HEAD FOR ALL LAYERS
    PRINT BUDGET
 UBDSV1 SAVING "         STORAGE" ON UNIT  53 AT TIME STEP 67, STRESS PERIOD   3
 UBDSV2 SAVING "   CONSTANT HEAD" ON UNIT  53 AT TIME STEP 67, STRESS PERIOD   3
 UBDSV1 SAVING "FLOW RIGHT FACE " ON UNIT  53 AT TIME STEP 67, STRESS PERIOD   3
 UBDSV1 SAVING "FLOW FRONT FACE " ON UNIT  53 AT TIME STEP 67, STRESS PERIOD   3
1
              HEAD IN LAYER   1 AT END OF TIME STEP  67 IN STRESS PERIOD    3
  ---------------------------------------------------------------------------

            1           2           3           4           5           6           7           8           9          10
 ........................................................................................................................
   1    9.987       8.402       6.865       5.432       4.165       3.101       2.207       1.423      0.7013      6.9412E-03
   2    9.986       8.354       6.761       5.266       3.960       2.933       2.096       1.361      0.6741      6.6724E-03
   3    9.986       8.265       6.558       4.912       3.477       2.574       1.883       1.250      0.6277      6.2152E-03
   4    9.985       8.164       6.295       4.346       2.461       2.005       1.610       1.127      0.5810      5.7551E-03
   5    9.984       8.111       6.112       3.716      1.5443E-02   1.375       1.426       1.069      0.5630      5.5791E-03
   6    9.985       8.181       6.328       4.390       2.510       2.053       1.652       1.157      0.5967      5.9112E-03
   7    9.986       8.302       6.628       5.005       3.581       2.676       1.969       1.312      0.6607      6.5414E-03
   8    9.987       8.415       6.875       5.420       4.133       3.101       2.238       1.462      0.7269      7.1955E-03
   9    9.988       8.494       7.039       5.668       4.430       3.356       2.418       1.571      0.7776      7.6967E-03
  10    9.988       8.533       7.119       5.783       4.563       3.475       2.507       1.628      0.8044      7.9619E-03

 HEAD WILL BE SAVED ON UNIT   51 AT END OF TIME STEP   67, STRESS PERIOD    3

 DRAWDOWN WILL BE SAVED ON UNIT   52 AT END OF TIME STEP   67, STRESS PERIOD    3
1
  VOLUMETRIC BUDGET FOR ENTIRE MODEL AT END OF TIME STEP   67, STRESS PERIOD   3
  ------------------------------------------------------------------------------

     CUMULATIVE VOLUMES      L**3       RATES FOR THIS TIME STEP      L**3/T
     ------------------                 ------------------------

           IN:                                      IN:
           ---                                      ---
             STORAGE =       30015.4785               STORAGE =           0.3104
       CONSTANT HEAD =           0.0000         CONSTANT HEAD =           0.0000
               WELLS =           0.0000                 WELLS =           0.0000
     HEAD DEP BOUNDS =      101168.1172       HEAD DEP BOUNDS =         832.0386

            TOTAL IN =      131183.5938              TOTAL IN =         832.3490

          OUT:                                     OUT:
          ----                                     ----
             STORAGE =           0.0000               STORAGE =           0.0000
       CONSTANT HEAD =           0.0000         CONSTANT HEAD =           0.0000
               WELLS =       33500.0000                 WELLS =         500.0000
     HEAD DEP BOUNDS =       97683.9766       HEAD DEP BOUNDS =         332.3489

           TOTAL OUT =      131183.9688             TOTAL OUT =         832.3489

            IN - OUT =          -0.3750              IN - OUT =       1.2207E-04

 PERCENT DISCREPANCY =          -0.00     PERCENT DISCREPANCY =           0.00






         TIME SUMMARY AT END OF TIME STEP   67 IN STRESS PERIOD    3
                    SECONDS     MINUTES      HOURS       DAYS        YEARS
                    -----------------------------------------------------------
   TIME STEP LENGTH  86400.      1440.0      24.000      1.0000     2.73785E-03
 STRESS PERIOD TIME 5.78880E+06  96480.      1608.0      67.000     0.18344    
         TOTAL TIME 1.45152E+07 2.41920E+05  4032.0      168.00     0.45996    
1

 SOLVING FOR HEAD 

 OUTPUT CONTROL FOR STRESS PERIOD    3   TIME STEP   68
    SAVE HEAD FOR ALL LAYERS
    SAVE DRAWDOWN FOR ALL LAYERS
    SAVE BUDGET
    PRINT HEAD FOR ALL LAYERS
    PRINT BUDGET
 UBDSV1 SAVING "         STORAGE" ON UNIT  53 AT TIME STEP 68, STRESS PERIOD   3
 UBDSV2 SAVING "   CONSTANT HEAD" ON UNIT  53 AT TIME STEP 68, STRESS PERIOD   3
 UBDSV1 SAVING "FLOW RIGHT FACE " ON UNIT  53 AT TIME STEP 68, STRESS PERIOD   3
 UBDSV1 SAVING "FLOW FRONT FACE " ON UNIT  53 AT TIME STEP 68, STRESS PERIOD   3
1
              HEAD IN LAYER   1 AT END OF TIME STEP  68 IN STRESS PERIOD    3
  ---------------------------------------------------------------------------

            1           2           3           4           5           6           7           8           9          10
 ........................................................................................................................
   1    9.987       8.402       6.865       5.432       4.164       3.101       2.207       1.423      0.7013      6.9409E-03
   2    9.986       8.354       6.761       5.266       3.960       2.933       2.096       1.361      0.6741      6.6721E-03
   3    9.986       8.265       6.558       4.912       3.477       2.574       1.883       1.250      0.6277      6.2149E-03
   4    9.985       8.164       6.295       4.346       2.461       2.005       1.610       1.127      0.5810      5.7548E-03
   5    9.984       8.111       6.112       3.716      1.5347E-02   1.375       1.426       1.069      0.5629      5.5788E-03
   6    9.985       8.181       6.328       4.389       2.510       2.053       1.652       1.157      0.5967      5.9109E-03
   7    9.986       8.302       6.627       5.005       3.581       2.676       1.969       1.312      0.6606      6.5411E-03
   8    9.987       8.415       6.875       5.420       4.133       3.101       2.238       1.462      0.7269      7.1951E-03
   9    9.988       8.494       7.039       5.668       4.430       3.356       2.418       1.571      0.7776      7.6964E-03
  10    9.988       8.533       7.118       5.783       4.563       3.475       2.507       1.628      0.8044      7.9615E-03

 HEAD WILL BE SAVED ON UNIT   51 AT END OF TIME STEP   68, STRESS PERIOD    3

 DRAWDOWN WILL BE SAVED ON UNIT   52 AT END OF TIME STEP   68, STRESS PERIOD    3
1
  VOLUMETRIC BUDGET FOR ENTIRE MODEL AT END OF TIME STEP   68, STRESS PERIOD   3
  ------------------------------------------------------------------------------

     CUMULATIVE VOLUMES      L**3       RATES FOR THIS TIME STEP      L**3/T
     ------------------                 ------------------------

           IN:                                      IN:
           ---                                      ---
             STORAGE =       30015.7559               STORAGE =           0.2771
       CONSTANT HEAD =           0.0000         CONSTANT HEAD =           0.0000
               WELLS =           0.0000                 WELLS =           0.0000
     HEAD DEP BOUNDS =      102000.1719       HEAD DEP BOUNDS =         832.0551

            TOTAL IN =      132015.9219              TOTAL IN =         832.3321

          OUT:                                     OUT:
          ----                                     ----
             STORAGE =           0.0000               STORAGE =           0.0000
       CONSTANT HEAD =           0.0000         CONSTANT HEAD =           0.0000
               WELLS =       34000.0000                 WELLS =         500.0000
     HEAD DEP BOUNDS =       98016.3125       HEAD DEP BOUNDS =         332.3322

           TOTAL OUT =      132016.3125             TOTAL OUT =         832.3323

            IN - OUT =          -0.3906              IN - OUT =      -1.8311E-04

 PERCENT DISCREPANCY =          -0.00     PERCENT DISCREPANCY =          -0.00






         TIME SUMMARY AT END OF TIME STEP   68 IN STRESS PERIOD    3
                    SECONDS     MINUTES      HOURS       DAYS        YEARS
                    -----------------------------------------------------------
   TIME STEP LENGTH  86400.      1440.0      24.000      1.0000     2.73785E-03
 STRESS PERIOD TIME 5.87520E+06  97920.      1632.0      68.000     0.18617    
         TOTAL TIME 1.46016E+07 2.43360E+05  4056.0      169.00     0.46270    
1

 SOLVING FOR HEAD 

 OUTPUT CONTROL FOR STRESS PERIOD    3   TIME STEP   69
    SAVE HEAD FOR ALL LAYERS
    SAVE DRAWDOWN FOR ALL LAYERS
    SAVE BUDGET
    PRINT HEAD FOR ALL LAYERS
    PRINT BUDGET
 UBDSV1 SAVING "         STORAGE" ON UNIT  53 AT TIME STEP 69, STRESS PERIOD   3
 UBDSV2 SAVING "   CONSTANT HEAD" ON UNIT  53 AT TIME STEP 69, STRESS PERIOD   3
 UBDSV1 SAVING "FLOW RIGHT FACE " ON UNIT  53 AT TIME STEP 69, STRESS PERIOD   3
 UBDSV1 SAVING "FLOW FRONT FACE " ON UNIT  53 AT TIME STEP 69, STRESS PERIOD   3
1
              HEAD IN LAYER   1 AT END OF TIME STEP  69 IN STRESS PERIOD    3
  ---------------------------------------------------------------------------

            1           2           3           4           5           6           7           8           9          10
 ........................................................................................................................
   1    9.987       8.402       6.865       5.432       4.164       3.101       2.207       1.423      0.7013      6.9406E-03
   2    9.986       8.354       6.761       5.266       3.960       2.933       2.096       1.360      0.6740      6.6718E-03
   3    9.986       8.265       6.558       4.912       3.477       2.574       1.882       1.249      0.6277      6.2146E-03
   4    9.985       8.164       6.295       4.346       2.461       2.005       1.610       1.127      0.5809      5.7545E-03
   5    9.984       8.110       6.112       3.716      1.5262E-02   1.375       1.426       1.068      0.5629      5.5785E-03
   6    9.985       8.181       6.328       4.389       2.510       2.053       1.651       1.157      0.5967      5.9106E-03
   7    9.986       8.302       6.627       5.004       3.581       2.676       1.969       1.312      0.6606      6.5408E-03
   8    9.987       8.415       6.875       5.420       4.133       3.101       2.237       1.462      0.7268      7.1948E-03
   9    9.988       8.494       7.039       5.668       4.430       3.356       2.418       1.571      0.7775      7.6961E-03
  10    9.988       8.533       7.118       5.783       4.563       3.475       2.507       1.628      0.8044      7.9612E-03

 HEAD WILL BE SAVED ON UNIT   51 AT END OF TIME STEP   69, STRESS PERIOD    3

 DRAWDOWN WILL BE SAVED ON UNIT   52 AT END OF TIME STEP   69, STRESS PERIOD    3
1
  VOLUMETRIC BUDGET FOR ENTIRE MODEL AT END OF TIME STEP   69, STRESS PERIOD   3
  ------------------------------------------------------------------------------

     CUMULATIVE VOLUMES      L**3       RATES FOR THIS TIME STEP      L**3/T
     ------------------                 ------------------------

           IN:                                      IN:
           ---                                      ---
             STORAGE =       30016.0039               STORAGE =           0.2473
       CONSTANT HEAD =           0.0000         CONSTANT HEAD =           0.0000
               WELLS =           0.0000                 WELLS =           0.0000
     HEAD DEP BOUNDS =      102832.2422       HEAD DEP BOUNDS =         832.0698

            TOTAL IN =      132848.2500              TOTAL IN =         832.3171

          OUT:                                     OUT:
          ----                                     ----
             STORAGE =           0.0000               STORAGE =           0.0000
       CONSTANT HEAD =           0.0000         CONSTANT HEAD =           0.0000
               WELLS =       34500.0000                 WELLS =         500.0000
     HEAD DEP BOUNDS =       98348.6328       HEAD DEP BOUNDS =         332.3174

           TOTAL OUT =      132848.6250             TOTAL OUT =         832.3174

            IN - OUT =          -0.3750              IN - OUT =      -3.0518E-04

 PERCENT DISCREPANCY =          -0.00     PERCENT DISCREPANCY =          -0.00






         TIME SUMMARY AT END OF TIME STEP   69 IN STRESS PERIOD    3
                    SECONDS     MINUTES      HOURS       DAYS        YEARS
                    -----------------------------------------------------------
   TIME STEP LENGTH  86400.      1440.0      24.000      1.0000     2.73785E-03
 STRESS PERIOD TIME 5.96160E+06  99360.      1656.0      69.000     0.18891    
         TOTAL TIME 1.46880E+07 2.44800E+05  4080.0      170.00     0.46543    
1

 SOLVING FOR HEAD 

 OUTPUT CONTROL FOR STRESS PERIOD    3   TIME STEP   70
    SAVE HEAD FOR ALL LAYERS
    SAVE DRAWDOWN FOR ALL LAYERS
    SAVE BUDGET
    PRINT HEAD FOR ALL LAYERS
    PRINT BUDGET
 UBDSV1 SAVING "         STORAGE" ON UNIT  53 AT TIME STEP 70, STRESS PERIOD   3
 UBDSV2 SAVING "   CONSTANT HEAD" ON UNIT  53 AT TIME STEP 70, STRESS PERIOD   3
 UBDSV1 SAVING "FLOW RIGHT FACE " ON UNIT  53 AT TIME STEP 70, STRESS PERIOD   3
 UBDSV1 SAVING "FLOW FRONT FACE " ON UNIT  53 AT TIME STEP 70, STRESS PERIOD   3
1
              HEAD IN LAYER   1 AT END OF TIME STEP  70 IN STRESS PERIOD    3
  ---------------------------------------------------------------------------

            1           2           3           4           5           6           7           8           9          10
 ........................................................................................................................
   1    9.987       8.402       6.865       5.432       4.164       3.101       2.207       1.423      0.7012      6.9404E-03
   2    9.986       8.353       6.761       5.266       3.960       2.933       2.096       1.360      0.6740      6.6715E-03
   3    9.986       8.265       6.558       4.912       3.477       2.574       1.882       1.249      0.6276      6.2143E-03
   4    9.985       8.164       6.295       4.346       2.461       2.005       1.610       1.127      0.5809      5.7542E-03
   5    9.984       8.110       6.112       3.716      1.5185E-02   1.375       1.426       1.068      0.5629      5.5782E-03
   6    9.985       8.181       6.328       4.389       2.510       2.053       1.651       1.157      0.5966      5.9103E-03
   7    9.986       8.302       6.627       5.004       3.581       2.676       1.969       1.312      0.6606      6.5405E-03
   8    9.987       8.414       6.875       5.420       4.133       3.100       2.237       1.462      0.7268      7.1946E-03
   9    9.988       8.494       7.039       5.668       4.430       3.356       2.418       1.571      0.7775      7.6958E-03
  10    9.988       8.533       7.118       5.783       4.563       3.475       2.507       1.627      0.8043      7.9610E-03

 HEAD WILL BE SAVED ON UNIT   51 AT END OF TIME STEP   70, STRESS PERIOD    3

 DRAWDOWN WILL BE SAVED ON UNIT   52 AT END OF TIME STEP   70, STRESS PERIOD    3
1
  VOLUMETRIC BUDGET FOR ENTIRE MODEL AT END OF TIME STEP   70, STRESS PERIOD   3
  ------------------------------------------------------------------------------

     CUMULATIVE VOLUMES      L**3       RATES FOR THIS TIME STEP      L**3/T
     ------------------                 ------------------------

           IN:                                      IN:
           ---                                      ---
             STORAGE =       30016.2246               STORAGE =           0.2209
       CONSTANT HEAD =           0.0000         CONSTANT HEAD =           0.0000
               WELLS =           0.0000                 WELLS =           0.0000
     HEAD DEP BOUNDS =      103664.3281       HEAD DEP BOUNDS =         832.0829

            TOTAL IN =      133680.5469              TOTAL IN =         832.3038

          OUT:                                     OUT:
          ----                                     ----
             STORAGE =           0.0000               STORAGE =           0.0000
       CONSTANT HEAD =           0.0000         CONSTANT HEAD =           0.0000
               WELLS =       35000.0000                 WELLS =         500.0000
     HEAD DEP BOUNDS =       98680.9375       HEAD DEP BOUNDS =         332.3041

           TOTAL OUT =      133680.9375             TOTAL OUT =         832.3041

            IN - OUT =          -0.3906              IN - OUT =      -2.4414E-04

 PERCENT DISCREPANCY =          -0.00     PERCENT DISCREPANCY =          -0.00






         TIME SUMMARY AT END OF TIME STEP   70 IN STRESS PERIOD    3
                    SECONDS     MINUTES      HOURS       DAYS        YEARS
                    -----------------------------------------------------------
   TIME STEP LENGTH  86400.      1440.0      24.000      1.0000     2.73785E-03
 STRESS PERIOD TIME 6.04800E+06 1.00800E+05  1680.0      70.000     0.19165    
         TOTAL TIME 1.47744E+07 2.46240E+05  4104.0      171.00     0.46817    
1

 SOLVING FOR HEAD 

 OUTPUT CONTROL FOR STRESS PERIOD    3   TIME STEP   71
    SAVE HEAD FOR ALL LAYERS
    SAVE DRAWDOWN FOR ALL LAYERS
    SAVE BUDGET
    PRINT HEAD FOR ALL LAYERS
    PRINT BUDGET
 UBDSV1 SAVING "         STORAGE" ON UNIT  53 AT TIME STEP 71, STRESS PERIOD   3
 UBDSV2 SAVING "   CONSTANT HEAD" ON UNIT  53 AT TIME STEP 71, STRESS PERIOD   3
 UBDSV1 SAVING "FLOW RIGHT FACE " ON UNIT  53 AT TIME STEP 71, STRESS PERIOD   3
 UBDSV1 SAVING "FLOW FRONT FACE " ON UNIT  53 AT TIME STEP 71, STRESS PERIOD   3
1
              HEAD IN LAYER   1 AT END OF TIME STEP  71 IN STRESS PERIOD    3
  ---------------------------------------------------------------------------

            1           2           3           4           5           6           7           8           9          10
 ........................................................................................................................
   1    9.987       8.402       6.865       5.432       4.164       3.101       2.206       1.423      0.7012      6.9401E-03
   2    9.986       8.353       6.761       5.266       3.960       2.933       2.095       1.360      0.6740      6.6713E-03
   3    9.986       8.265       6.558       4.912       3.477       2.574       1.882       1.249      0.6276      6.2141E-03
   4    9.985       8.164       6.295       4.346       2.461       2.005       1.610       1.127      0.5809      5.7540E-03
   5    9.984       8.110       6.112       3.716      1.5117E-02   1.375       1.426       1.068      0.5629      5.5780E-03
   6    9.985       8.181       6.327       4.389       2.509       2.053       1.651       1.157      0.5966      5.9101E-03
   7    9.986       8.302       6.627       5.004       3.581       2.676       1.969       1.312      0.6605      6.5403E-03
   8    9.987       8.414       6.875       5.420       4.133       3.100       2.237       1.462      0.7268      7.1943E-03
   9    9.988       8.493       7.039       5.668       4.430       3.356       2.418       1.571      0.7775      7.6956E-03
  10    9.988       8.533       7.118       5.783       4.563       3.475       2.507       1.627      0.8043      7.9607E-03

 HEAD WILL BE SAVED ON UNIT   51 AT END OF TIME STEP   71, STRESS PERIOD    3

 DRAWDOWN WILL BE SAVED ON UNIT   52 AT END OF TIME STEP   71, STRESS PERIOD    3
1
  VOLUMETRIC BUDGET FOR ENTIRE MODEL AT END OF TIME STEP   71, STRESS PERIOD   3
  ------------------------------------------------------------------------------

     CUMULATIVE VOLUMES      L**3       RATES FOR THIS TIME STEP      L**3/T
     ------------------                 ------------------------

           IN:                                      IN:
           ---                                      ---
             STORAGE =       30016.4219               STORAGE =           0.1971
       CONSTANT HEAD =           0.0000         CONSTANT HEAD =           0.0000
               WELLS =           0.0000                 WELLS =           0.0000
     HEAD DEP BOUNDS =      104496.4219       HEAD DEP BOUNDS =         832.0947

            TOTAL IN =      134512.8438              TOTAL IN =         832.2917

          OUT:                                     OUT:
          ----                                     ----
             STORAGE =           0.0000               STORAGE =           0.0000
       CONSTANT HEAD =           0.0000         CONSTANT HEAD =           0.0000
               WELLS =       35500.0000                 WELLS =         500.0000
     HEAD DEP BOUNDS =       99013.2266       HEAD DEP BOUNDS =         332.2923

           TOTAL OUT =      134513.2188             TOTAL OUT =         832.2922

            IN - OUT =          -0.3750              IN - OUT =      -4.8828E-04

 PERCENT DISCREPANCY =          -0.00     PERCENT DISCREPANCY =          -0.00






         TIME SUMMARY AT END OF TIME STEP   71 IN STRESS PERIOD    3
                    SECONDS     MINUTES      HOURS       DAYS        YEARS
                    -----------------------------------------------------------
   TIME STEP LENGTH  86400.      1440.0      24.000      1.0000     2.73785E-03
 STRESS PERIOD TIME 6.13440E+06 1.02240E+05  1704.0      71.000     0.19439    
         TOTAL TIME 1.48608E+07 2.47680E+05  4128.0      172.00     0.47091    
1

 SOLVING FOR HEAD 

 OUTPUT CONTROL FOR STRESS PERIOD    3   TIME STEP   72
    SAVE HEAD FOR ALL LAYERS
    SAVE DRAWDOWN FOR ALL LAYERS
    SAVE BUDGET
    PRINT HEAD FOR ALL LAYERS
    PRINT BUDGET
 UBDSV1 SAVING "         STORAGE" ON UNIT  53 AT TIME STEP 72, STRESS PERIOD   3
 UBDSV2 SAVING "   CONSTANT HEAD" ON UNIT  53 AT TIME STEP 72, STRESS PERIOD   3
 UBDSV1 SAVING "FLOW RIGHT FACE " ON UNIT  53 AT TIME STEP 72, STRESS PERIOD   3
 UBDSV1 SAVING "FLOW FRONT FACE " ON UNIT  53 AT TIME STEP 72, STRESS PERIOD   3
1
              HEAD IN LAYER   1 AT END OF TIME STEP  72 IN STRESS PERIOD    3
  ---------------------------------------------------------------------------

            1           2           3           4           5           6           7           8           9          10
 ........................................................................................................................
   1    9.987       8.402       6.865       5.432       4.164       3.101       2.206       1.423      0.7012      6.9399E-03
   2    9.986       8.353       6.760       5.266       3.960       2.933       2.095       1.360      0.6740      6.6711E-03
   3    9.986       8.265       6.558       4.912       3.476       2.574       1.882       1.249      0.6276      6.2139E-03
   4    9.985       8.164       6.295       4.346       2.461       2.005       1.610       1.127      0.5808      5.7538E-03
   5    9.984       8.110       6.112       3.715      1.5056E-02   1.375       1.426       1.068      0.5628      5.5777E-03
   6    9.985       8.181       6.327       4.389       2.509       2.053       1.651       1.157      0.5966      5.9099E-03
   7    9.986       8.302       6.627       5.004       3.581       2.676       1.969       1.312      0.6605      6.5400E-03
   8    9.987       8.414       6.875       5.420       4.133       3.100       2.237       1.462      0.7268      7.1941E-03
   9    9.988       8.493       7.039       5.668       4.430       3.356       2.418       1.571      0.7775      7.6954E-03
  10    9.988       8.533       7.118       5.783       4.563       3.475       2.507       1.627      0.8043      7.9605E-03

 HEAD WILL BE SAVED ON UNIT   51 AT END OF TIME STEP   72, STRESS PERIOD    3

 DRAWDOWN WILL BE SAVED ON UNIT   52 AT END OF TIME STEP   72, STRESS PERIOD    3
1
  VOLUMETRIC BUDGET FOR ENTIRE MODEL AT END OF TIME STEP   72, STRESS PERIOD   3
  ------------------------------------------------------------------------------

     CUMULATIVE VOLUMES      L**3       RATES FOR THIS TIME STEP      L**3/T
     ------------------                 ------------------------

           IN:                                      IN:
           ---                                      ---
             STORAGE =       30016.5977               STORAGE =           0.1760
       CONSTANT HEAD =           0.0000         CONSTANT HEAD =           0.0000
               WELLS =           0.0000                 WELLS =           0.0000
     HEAD DEP BOUNDS =      105328.5234       HEAD DEP BOUNDS =         832.1051

            TOTAL IN =      135345.1250              TOTAL IN =         832.2811

          OUT:                                     OUT:
          ----                                     ----
             STORAGE =           0.0000               STORAGE =           0.0000
       CONSTANT HEAD =           0.0000         CONSTANT HEAD =           0.0000
               WELLS =       36000.0000                 WELLS =         500.0000
     HEAD DEP BOUNDS =       99345.5078       HEAD DEP BOUNDS =         332.2817

           TOTAL OUT =      135345.5000             TOTAL OUT =         832.2817

            IN - OUT =          -0.3750              IN - OUT =      -5.4932E-04

 PERCENT DISCREPANCY =          -0.00     PERCENT DISCREPANCY =          -0.00






         TIME SUMMARY AT END OF TIME STEP   72 IN STRESS PERIOD    3
                    SECONDS     MINUTES      HOURS       DAYS        YEARS
                    -----------------------------------------------------------
   TIME STEP LENGTH  86400.      1440.0      24.000      1.0000     2.73785E-03
 STRESS PERIOD TIME 6.22080E+06 1.03680E+05  1728.0      72.000     0.19713    
         TOTAL TIME 1.49472E+07 2.49120E+05  4152.0      173.00     0.47365    
1

 SOLVING FOR HEAD 

 OUTPUT CONTROL FOR STRESS PERIOD    3   TIME STEP   73
    SAVE HEAD FOR ALL LAYERS
    SAVE DRAWDOWN FOR ALL LAYERS
    SAVE BUDGET
    PRINT HEAD FOR ALL LAYERS
    PRINT BUDGET
 UBDSV1 SAVING "         STORAGE" ON UNIT  53 AT TIME STEP 73, STRESS PERIOD   3
 UBDSV2 SAVING "   CONSTANT HEAD" ON UNIT  53 AT TIME STEP 73, STRESS PERIOD   3
 UBDSV1 SAVING "FLOW RIGHT FACE " ON UNIT  53 AT TIME STEP 73, STRESS PERIOD   3
 UBDSV1 SAVING "FLOW FRONT FACE " ON UNIT  53 AT TIME STEP 73, STRESS PERIOD   3
1
              HEAD IN LAYER   1 AT END OF TIME STEP  73 IN STRESS PERIOD    3
  ---------------------------------------------------------------------------

            1           2           3           4           5           6           7           8           9          10
 ........................................................................................................................
   1    9.987       8.402       6.865       5.431       4.164       3.101       2.206       1.423      0.7012      6.9397E-03
   2    9.986       8.353       6.760       5.266       3.960       2.933       2.095       1.360      0.6739      6.6709E-03
   3    9.986       8.265       6.558       4.911       3.476       2.574       1.882       1.249      0.6276      6.2137E-03
   4    9.985       8.164       6.295       4.346       2.460       2.005       1.610       1.127      0.5808      5.7536E-03
   5    9.984       8.110       6.112       3.715      1.5001E-02   1.375       1.426       1.068      0.5628      5.5776E-03
   6    9.985       8.181       6.327       4.389       2.509       2.053       1.651       1.157      0.5966      5.9097E-03
   7    9.986       8.302       6.627       5.004       3.580       2.676       1.969       1.312      0.6605      6.5399E-03
   8    9.987       8.414       6.875       5.420       4.133       3.100       2.237       1.462      0.7267      7.1939E-03
   9    9.988       8.493       7.039       5.668       4.430       3.356       2.418       1.571      0.7774      7.6952E-03
  10    9.988       8.533       7.118       5.783       4.563       3.475       2.507       1.627      0.8043      7.9603E-03

 HEAD WILL BE SAVED ON UNIT   51 AT END OF TIME STEP   73, STRESS PERIOD    3

 DRAWDOWN WILL BE SAVED ON UNIT   52 AT END OF TIME STEP   73, STRESS PERIOD    3
1
  VOLUMETRIC BUDGET FOR ENTIRE MODEL AT END OF TIME STEP   73, STRESS PERIOD   3
  ------------------------------------------------------------------------------

     CUMULATIVE VOLUMES      L**3       RATES FOR THIS TIME STEP      L**3/T
     ------------------                 ------------------------

           IN:                                      IN:
           ---                                      ---
             STORAGE =       30016.7559               STORAGE =           0.1572
       CONSTANT HEAD =           0.0000         CONSTANT HEAD =           0.0000
               WELLS =           0.0000                 WELLS =           0.0000
     HEAD DEP BOUNDS =      106160.6406       HEAD DEP BOUNDS =         832.1145

            TOTAL IN =      136177.3906              TOTAL IN =         832.2717

          OUT:                                     OUT:
          ----                                     ----
             STORAGE =           0.0000               STORAGE =           0.0000
       CONSTANT HEAD =           0.0000         CONSTANT HEAD =           0.0000
               WELLS =       36500.0000                 WELLS =         500.0000
     HEAD DEP BOUNDS =       99677.7812       HEAD DEP BOUNDS =         332.2722

           TOTAL OUT =      136177.7812             TOTAL OUT =         832.2722

            IN - OUT =          -0.3906              IN - OUT =      -4.8828E-04

 PERCENT DISCREPANCY =          -0.00     PERCENT DISCREPANCY =          -0.00






         TIME SUMMARY AT END OF TIME STEP   73 IN STRESS PERIOD    3
                    SECONDS     MINUTES      HOURS       DAYS        YEARS
                    -----------------------------------------------------------
   TIME STEP LENGTH  86400.      1440.0      24.000      1.0000     2.73785E-03
 STRESS PERIOD TIME 6.30720E+06 1.05120E+05  1752.0      73.000     0.19986    
         TOTAL TIME 1.50336E+07 2.50560E+05  4176.0      174.00     0.47639    
1

 SOLVING FOR HEAD 

 OUTPUT CONTROL FOR STRESS PERIOD    3   TIME STEP   74
    SAVE HEAD FOR ALL LAYERS
    SAVE DRAWDOWN FOR ALL LAYERS
    SAVE BUDGET
    PRINT HEAD FOR ALL LAYERS
    PRINT BUDGET
 UBDSV1 SAVING "         STORAGE" ON UNIT  53 AT TIME STEP 74, STRESS PERIOD   3
 UBDSV2 SAVING "   CONSTANT HEAD" ON UNIT  53 AT TIME STEP 74, STRESS PERIOD   3
 UBDSV1 SAVING "FLOW RIGHT FACE " ON UNIT  53 AT TIME STEP 74, STRESS PERIOD   3
 UBDSV1 SAVING "FLOW FRONT FACE " ON UNIT  53 AT TIME STEP 74, STRESS PERIOD   3
1
              HEAD IN LAYER   1 AT END OF TIME STEP  74 IN STRESS PERIOD    3
  ---------------------------------------------------------------------------

            1           2           3           4           5           6           7           8           9          10
 ........................................................................................................................
   1    9.987       8.402       6.864       5.431       4.164       3.101       2.206       1.423      0.7012      6.9395E-03
   2    9.986       8.353       6.760       5.266       3.960       2.933       2.095       1.360      0.6739      6.6707E-03
   3    9.986       8.265       6.558       4.911       3.476       2.574       1.882       1.249      0.6276      6.2135E-03
   4    9.985       8.164       6.295       4.346       2.460       2.005       1.610       1.127      0.5808      5.7534E-03
   5    9.984       8.110       6.112       3.715      1.4953E-02   1.375       1.426       1.068      0.5628      5.5774E-03
   6    9.985       8.181       6.327       4.389       2.509       2.053       1.651       1.157      0.5966      5.9095E-03
   7    9.986       8.302       6.627       5.004       3.580       2.676       1.969       1.312      0.6605      6.5397E-03
   8    9.987       8.414       6.875       5.420       4.133       3.100       2.237       1.462      0.7267      7.1938E-03
   9    9.988       8.493       7.039       5.668       4.430       3.356       2.418       1.571      0.7774      7.6950E-03
  10    9.988       8.533       7.118       5.783       4.562       3.475       2.507       1.627      0.8042      7.9602E-03

 HEAD WILL BE SAVED ON UNIT   51 AT END OF TIME STEP   74, STRESS PERIOD    3

 DRAWDOWN WILL BE SAVED ON UNIT   52 AT END OF TIME STEP   74, STRESS PERIOD    3
1
  VOLUMETRIC BUDGET FOR ENTIRE MODEL AT END OF TIME STEP   74, STRESS PERIOD   3
  ------------------------------------------------------------------------------

     CUMULATIVE VOLUMES      L**3       RATES FOR THIS TIME STEP      L**3/T
     ------------------                 ------------------------

           IN:                                      IN:
           ---                                      ---
             STORAGE =       30016.8965               STORAGE =           0.1404
       CONSTANT HEAD =           0.0000         CONSTANT HEAD =           0.0000
               WELLS =           0.0000                 WELLS =           0.0000
     HEAD DEP BOUNDS =      106992.7656       HEAD DEP BOUNDS =         832.1229

            TOTAL IN =      137009.6562              TOTAL IN =         832.2632

          OUT:                                     OUT:
          ----                                     ----
             STORAGE =           0.0000               STORAGE =           0.0000
       CONSTANT HEAD =           0.0000         CONSTANT HEAD =           0.0000
               WELLS =       37000.0000                 WELLS =         500.0000
     HEAD DEP BOUNDS =      100010.0469       HEAD DEP BOUNDS =         332.2638

           TOTAL OUT =      137010.0469             TOTAL OUT =         832.2638

            IN - OUT =          -0.3906              IN - OUT =      -5.4932E-04

 PERCENT DISCREPANCY =          -0.00     PERCENT DISCREPANCY =          -0.00






         TIME SUMMARY AT END OF TIME STEP   74 IN STRESS PERIOD    3
                    SECONDS     MINUTES      HOURS       DAYS        YEARS
                    -----------------------------------------------------------
   TIME STEP LENGTH  86400.      1440.0      24.000      1.0000     2.73785E-03
 STRESS PERIOD TIME 6.39360E+06 1.06560E+05  1776.0      74.000     0.20260    
         TOTAL TIME 1.51200E+07 2.52000E+05  4200.0      175.00     0.47912    
1

 SOLVING FOR HEAD 

 OUTPUT CONTROL FOR STRESS PERIOD    3   TIME STEP   75
    SAVE HEAD FOR ALL LAYERS
    SAVE DRAWDOWN FOR ALL LAYERS
    SAVE BUDGET
    PRINT HEAD FOR ALL LAYERS
    PRINT BUDGET
 UBDSV1 SAVING "         STORAGE" ON UNIT  53 AT TIME STEP 75, STRESS PERIOD   3
 UBDSV2 SAVING "   CONSTANT HEAD" ON UNIT  53 AT TIME STEP 75, STRESS PERIOD   3
 UBDSV1 SAVING "FLOW RIGHT FACE " ON UNIT  53 AT TIME STEP 75, STRESS PERIOD   3
 UBDSV1 SAVING "FLOW FRONT FACE " ON UNIT  53 AT TIME STEP 75, STRESS PERIOD   3
1
              HEAD IN LAYER   1 AT END OF TIME STEP  75 IN STRESS PERIOD    3
  ---------------------------------------------------------------------------

            1           2           3           4           5           6           7           8           9          10
 ........................................................................................................................
   1    9.987       8.402       6.864       5.431       4.164       3.101       2.206       1.423      0.7011      6.9394E-03
   2    9.986       8.353       6.760       5.266       3.960       2.932       2.095       1.360      0.6739      6.6705E-03
   3    9.986       8.265       6.558       4.911       3.476       2.574       1.882       1.249      0.6276      6.2134E-03
   4    9.985       8.164       6.295       4.345       2.460       2.005       1.610       1.127      0.5808      5.7533E-03
   5    9.984       8.110       6.112       3.715      1.4909E-02   1.375       1.426       1.068      0.5628      5.5772E-03
   6    9.985       8.181       6.327       4.389       2.509       2.053       1.651       1.157      0.5965      5.9094E-03
   7    9.986       8.302       6.627       5.004       3.580       2.676       1.969       1.312      0.6605      6.5395E-03
   8    9.987       8.414       6.875       5.420       4.133       3.100       2.237       1.462      0.7267      7.1936E-03
   9    9.988       8.493       7.039       5.668       4.430       3.356       2.418       1.571      0.7774      7.6949E-03
  10    9.988       8.533       7.118       5.783       4.562       3.475       2.507       1.627      0.8042      7.9600E-03

 HEAD WILL BE SAVED ON UNIT   51 AT END OF TIME STEP   75, STRESS PERIOD    3

 DRAWDOWN WILL BE SAVED ON UNIT   52 AT END OF TIME STEP   75, STRESS PERIOD    3
1
  VOLUMETRIC BUDGET FOR ENTIRE MODEL AT END OF TIME STEP   75, STRESS PERIOD   3
  ------------------------------------------------------------------------------

     CUMULATIVE VOLUMES      L**3       RATES FOR THIS TIME STEP      L**3/T
     ------------------                 ------------------------

           IN:                                      IN:
           ---                                      ---
             STORAGE =       30017.0215               STORAGE =           0.1253
       CONSTANT HEAD =           0.0000         CONSTANT HEAD =           0.0000
               WELLS =           0.0000                 WELLS =           0.0000
     HEAD DEP BOUNDS =      107824.8984       HEAD DEP BOUNDS =         832.1303

            TOTAL IN =      137841.9219              TOTAL IN =         832.2556

          OUT:                                     OUT:
          ----                                     ----
             STORAGE =           0.0000               STORAGE =           0.0000
       CONSTANT HEAD =           0.0000         CONSTANT HEAD =           0.0000
               WELLS =       37500.0000                 WELLS =         500.0000
     HEAD DEP BOUNDS =      100342.3047       HEAD DEP BOUNDS =         332.2563

           TOTAL OUT =      137842.3125             TOTAL OUT =         832.2563

            IN - OUT =          -0.3906              IN - OUT =      -7.3242E-04

 PERCENT DISCREPANCY =          -0.00     PERCENT DISCREPANCY =          -0.00






         TIME SUMMARY AT END OF TIME STEP   75 IN STRESS PERIOD    3
                    SECONDS     MINUTES      HOURS       DAYS        YEARS
                    -----------------------------------------------------------
   TIME STEP LENGTH  86400.      1440.0      24.000      1.0000     2.73785E-03
 STRESS PERIOD TIME 6.48000E+06 1.08000E+05  1800.0      75.000     0.20534    
         TOTAL TIME 1.52064E+07 2.53440E+05  4224.0      176.00     0.48186    
1

 SOLVING FOR HEAD 

 OUTPUT CONTROL FOR STRESS PERIOD    3   TIME STEP   76
    SAVE HEAD FOR ALL LAYERS
    SAVE DRAWDOWN FOR ALL LAYERS
    SAVE BUDGET
    PRINT HEAD FOR ALL LAYERS
    PRINT BUDGET
 UBDSV1 SAVING "         STORAGE" ON UNIT  53 AT TIME STEP 76, STRESS PERIOD   3
 UBDSV2 SAVING "   CONSTANT HEAD" ON UNIT  53 AT TIME STEP 76, STRESS PERIOD   3
 UBDSV1 SAVING "FLOW RIGHT FACE " ON UNIT  53 AT TIME STEP 76, STRESS PERIOD   3
 UBDSV1 SAVING "FLOW FRONT FACE " ON UNIT  53 AT TIME STEP 76, STRESS PERIOD   3
1
              HEAD IN LAYER   1 AT END OF TIME STEP  76 IN STRESS PERIOD    3
  ---------------------------------------------------------------------------

            1           2           3           4           5           6           7           8           9          10
 ........................................................................................................................
   1    9.987       8.402       6.864       5.431       4.164       3.101       2.206       1.423      0.7011      6.9393E-03
   2    9.986       8.353       6.760       5.266       3.960       2.932       2.095       1.360      0.6739      6.6704E-03
   3    9.986       8.265       6.558       4.911       3.476       2.574       1.882       1.249      0.6275      6.2132E-03
   4    9.985       8.164       6.295       4.345       2.460       2.005       1.610       1.127      0.5808      5.7532E-03
   5    9.984       8.110       6.112       3.715      1.4871E-02   1.375       1.426       1.068      0.5628      5.5771E-03
   6    9.985       8.181       6.327       4.389       2.509       2.053       1.651       1.157      0.5965      5.9093E-03
   7    9.986       8.302       6.627       5.004       3.580       2.676       1.969       1.312      0.6605      6.5394E-03
   8    9.987       8.414       6.875       5.420       4.132       3.100       2.237       1.462      0.7267      7.1935E-03
   9    9.988       8.493       7.039       5.668       4.430       3.356       2.418       1.571      0.7774      7.6947E-03
  10    9.988       8.533       7.118       5.783       4.562       3.475       2.507       1.627      0.8042      7.9599E-03

 HEAD WILL BE SAVED ON UNIT   51 AT END OF TIME STEP   76, STRESS PERIOD    3

 DRAWDOWN WILL BE SAVED ON UNIT   52 AT END OF TIME STEP   76, STRESS PERIOD    3
1
  VOLUMETRIC BUDGET FOR ENTIRE MODEL AT END OF TIME STEP   76, STRESS PERIOD   3
  ------------------------------------------------------------------------------

     CUMULATIVE VOLUMES      L**3       RATES FOR THIS TIME STEP      L**3/T
     ------------------                 ------------------------

           IN:                                      IN:
           ---                                      ---
             STORAGE =       30017.1328               STORAGE =           0.1118
       CONSTANT HEAD =           0.0000         CONSTANT HEAD =           0.0000
               WELLS =           0.0000                 WELLS =           0.0000
     HEAD DEP BOUNDS =      108657.0391       HEAD DEP BOUNDS =         832.1370

            TOTAL IN =      138674.1719              TOTAL IN =         832.2487

          OUT:                                     OUT:
          ----                                     ----
             STORAGE =           0.0000               STORAGE =           0.0000
       CONSTANT HEAD =           0.0000         CONSTANT HEAD =           0.0000
               WELLS =       38000.0000                 WELLS =         500.0000
     HEAD DEP BOUNDS =      100674.5547       HEAD DEP BOUNDS =         332.2496

           TOTAL OUT =      138674.5625             TOTAL OUT =         832.2496

            IN - OUT =          -0.3906              IN - OUT =      -8.5449E-04

 PERCENT DISCREPANCY =          -0.00     PERCENT DISCREPANCY =          -0.00






         TIME SUMMARY AT END OF TIME STEP   76 IN STRESS PERIOD    3
                    SECONDS     MINUTES      HOURS       DAYS        YEARS
                    -----------------------------------------------------------
   TIME STEP LENGTH  86400.      1440.0      24.000      1.0000     2.73785E-03
 STRESS PERIOD TIME 6.56640E+06 1.09440E+05  1824.0      76.000     0.20808    
         TOTAL TIME 1.52928E+07 2.54880E+05  4248.0      177.00     0.48460    
1

 SOLVING FOR HEAD 

 OUTPUT CONTROL FOR STRESS PERIOD    3   TIME STEP   77
    SAVE HEAD FOR ALL LAYERS
    SAVE DRAWDOWN FOR ALL LAYERS
    SAVE BUDGET
    PRINT HEAD FOR ALL LAYERS
    PRINT BUDGET
 UBDSV1 SAVING "         STORAGE" ON UNIT  53 AT TIME STEP 77, STRESS PERIOD   3
 UBDSV2 SAVING "   CONSTANT HEAD" ON UNIT  53 AT TIME STEP 77, STRESS PERIOD   3
 UBDSV1 SAVING "FLOW RIGHT FACE " ON UNIT  53 AT TIME STEP 77, STRESS PERIOD   3
 UBDSV1 SAVING "FLOW FRONT FACE " ON UNIT  53 AT TIME STEP 77, STRESS PERIOD   3
1
              HEAD IN LAYER   1 AT END OF TIME STEP  77 IN STRESS PERIOD    3
  ---------------------------------------------------------------------------

            1           2           3           4           5           6           7           8           9          10
 ........................................................................................................................
   1    9.987       8.402       6.864       5.431       4.164       3.101       2.206       1.423      0.7011      6.9391E-03
   2    9.986       8.353       6.760       5.266       3.960       2.932       2.095       1.360      0.6739      6.6703E-03
   3    9.986       8.265       6.558       4.911       3.476       2.574       1.882       1.249      0.6275      6.2131E-03
   4    9.985       8.164       6.295       4.345       2.460       2.005       1.610       1.127      0.5808      5.7530E-03
   5    9.984       8.110       6.112       3.715      1.4836E-02   1.375       1.426       1.068      0.5628      5.5770E-03
   6    9.985       8.181       6.327       4.389       2.509       2.053       1.651       1.157      0.5965      5.9091E-03
   7    9.986       8.302       6.627       5.004       3.580       2.675       1.969       1.312      0.6604      6.5393E-03
   8    9.987       8.414       6.875       5.420       4.132       3.100       2.237       1.462      0.7267      7.1934E-03
   9    9.988       8.493       7.039       5.668       4.429       3.355       2.418       1.571      0.7774      7.6946E-03
  10    9.988       8.533       7.118       5.783       4.562       3.475       2.507       1.627      0.8042      7.9598E-03

 HEAD WILL BE SAVED ON UNIT   51 AT END OF TIME STEP   77, STRESS PERIOD    3

 DRAWDOWN WILL BE SAVED ON UNIT   52 AT END OF TIME STEP   77, STRESS PERIOD    3
1
  VOLUMETRIC BUDGET FOR ENTIRE MODEL AT END OF TIME STEP   77, STRESS PERIOD   3
  ------------------------------------------------------------------------------

     CUMULATIVE VOLUMES      L**3       RATES FOR THIS TIME STEP      L**3/T
     ------------------                 ------------------------

           IN:                                      IN:
           ---                                      ---
             STORAGE =       30017.2324               STORAGE =       9.9867E-02
       CONSTANT HEAD =           0.0000         CONSTANT HEAD =           0.0000
               WELLS =           0.0000                 WELLS =           0.0000
     HEAD DEP BOUNDS =      109489.1797       HEAD DEP BOUNDS =         832.1429

            TOTAL IN =      139506.4062              TOTAL IN =         832.2427

          OUT:                                     OUT:
          ----                                     ----
             STORAGE =           0.0000               STORAGE =           0.0000
       CONSTANT HEAD =           0.0000         CONSTANT HEAD =           0.0000
               WELLS =       38500.0000                 WELLS =         500.0000
     HEAD DEP BOUNDS =      101006.7969       HEAD DEP BOUNDS =         332.2436

           TOTAL OUT =      139506.7969             TOTAL OUT =         832.2436

            IN - OUT =          -0.3906              IN - OUT =      -8.5449E-04

 PERCENT DISCREPANCY =          -0.00     PERCENT DISCREPANCY =          -0.00






         TIME SUMMARY AT END OF TIME STEP   77 IN STRESS PERIOD    3
                    SECONDS     MINUTES      HOURS       DAYS        YEARS
                    -----------------------------------------------------------
   TIME STEP LENGTH  86400.      1440.0      24.000      1.0000     2.73785E-03
 STRESS PERIOD TIME 6.65280E+06 1.10880E+05  1848.0      77.000     0.21081    
         TOTAL TIME 1.53792E+07 2.56320E+05  4272.0      178.00     0.48734    
1

 SOLVING FOR HEAD 

 OUTPUT CONTROL FOR STRESS PERIOD    3   TIME STEP   78
    SAVE HEAD FOR ALL LAYERS
    SAVE DRAWDOWN FOR ALL LAYERS
    SAVE BUDGET
    PRINT HEAD FOR ALL LAYERS
    PRINT BUDGET
 UBDSV1 SAVING "         STORAGE" ON UNIT  53 AT TIME STEP 78, STRESS PERIOD   3
 UBDSV2 SAVING "   CONSTANT HEAD" ON UNIT  53 AT TIME STEP 78, STRESS PERIOD   3
 UBDSV1 SAVING "FLOW RIGHT FACE " ON UNIT  53 AT TIME STEP 78, STRESS PERIOD   3
 UBDSV1 SAVING "FLOW FRONT FACE " ON UNIT  53 AT TIME STEP 78, STRESS PERIOD   3
1
              HEAD IN LAYER   1 AT END OF TIME STEP  78 IN STRESS PERIOD    3
  ---------------------------------------------------------------------------

            1           2           3           4           5           6           7           8           9          10
 ........................................................................................................................
   1    9.987       8.402       6.864       5.431       4.164       3.101       2.206       1.423      0.7011      6.9390E-03
   2    9.986       8.353       6.760       5.266       3.960       2.932       2.095       1.360      0.6739      6.6702E-03
   3    9.986       8.265       6.558       4.911       3.476       2.574       1.882       1.249      0.6275      6.2130E-03
   4    9.985       8.164       6.295       4.345       2.460       2.005       1.610       1.127      0.5808      5.7529E-03
   5    9.984       8.110       6.112       3.715      1.4805E-02   1.374       1.426       1.068      0.5628      5.5769E-03
   6    9.985       8.181       6.327       4.389       2.509       2.053       1.651       1.157      0.5965      5.9090E-03
   7    9.986       8.302       6.627       5.004       3.580       2.675       1.969       1.312      0.6604      6.5392E-03
   8    9.987       8.414       6.875       5.420       4.132       3.100       2.237       1.462      0.7267      7.1933E-03
   9    9.988       8.493       7.039       5.668       4.429       3.355       2.418       1.571      0.7774      7.6945E-03
  10    9.988       8.533       7.118       5.783       4.562       3.475       2.507       1.627      0.8042      7.9597E-03

 HEAD WILL BE SAVED ON UNIT   51 AT END OF TIME STEP   78, STRESS PERIOD    3

 DRAWDOWN WILL BE SAVED ON UNIT   52 AT END OF TIME STEP   78, STRESS PERIOD    3
1
  VOLUMETRIC BUDGET FOR ENTIRE MODEL AT END OF TIME STEP   78, STRESS PERIOD   3
  ------------------------------------------------------------------------------

     CUMULATIVE VOLUMES      L**3       RATES FOR THIS TIME STEP      L**3/T
     ------------------                 ------------------------

           IN:                                      IN:
           ---                                      ---
             STORAGE =       30017.3223               STORAGE =       8.9017E-02
       CONSTANT HEAD =           0.0000         CONSTANT HEAD =           0.0000
               WELLS =           0.0000                 WELLS =           0.0000
     HEAD DEP BOUNDS =      110321.3281       HEAD DEP BOUNDS =         832.1482

            TOTAL IN =      140338.6562              TOTAL IN =         832.2372

          OUT:                                     OUT:
          ----                                     ----
             STORAGE =           0.0000               STORAGE =           0.0000
       CONSTANT HEAD =           0.0000         CONSTANT HEAD =           0.0000
               WELLS =       39000.0000                 WELLS =         500.0000
     HEAD DEP BOUNDS =      101339.0312       HEAD DEP BOUNDS =         332.2382

           TOTAL OUT =      140339.0312             TOTAL OUT =         832.2382

            IN - OUT =          -0.3750              IN - OUT =      -1.0376E-03

 PERCENT DISCREPANCY =          -0.00     PERCENT DISCREPANCY =          -0.00






         TIME SUMMARY AT END OF TIME STEP   78 IN STRESS PERIOD    3
                    SECONDS     MINUTES      HOURS       DAYS        YEARS
                    -----------------------------------------------------------
   TIME STEP LENGTH  86400.      1440.0      24.000      1.0000     2.73785E-03
 STRESS PERIOD TIME 6.73920E+06 1.12320E+05  1872.0      78.000     0.21355    
         TOTAL TIME 1.54656E+07 2.57760E+05  4296.0      179.00     0.49008    
1

 SOLVING FOR HEAD 

 OUTPUT CONTROL FOR STRESS PERIOD    3   TIME STEP   79
    SAVE HEAD FOR ALL LAYERS
    SAVE DRAWDOWN FOR ALL LAYERS
    SAVE BUDGET
    PRINT HEAD FOR ALL LAYERS
    PRINT BUDGET
 UBDSV1 SAVING "         STORAGE" ON UNIT  53 AT TIME STEP 79, STRESS PERIOD   3
 UBDSV2 SAVING "   CONSTANT HEAD" ON UNIT  53 AT TIME STEP 79, STRESS PERIOD   3
 UBDSV1 SAVING "FLOW RIGHT FACE " ON UNIT  53 AT TIME STEP 79, STRESS PERIOD   3
 UBDSV1 SAVING "FLOW FRONT FACE " ON UNIT  53 AT TIME STEP 79, STRESS PERIOD   3
1
              HEAD IN LAYER   1 AT END OF TIME STEP  79 IN STRESS PERIOD    3
  ---------------------------------------------------------------------------

            1           2           3           4           5           6           7           8           9          10
 ........................................................................................................................
   1    9.987       8.402       6.864       5.431       4.164       3.101       2.206       1.422      0.7011      6.9389E-03
   2    9.986       8.353       6.760       5.266       3.960       2.932       2.095       1.360      0.6739      6.6701E-03
   3    9.986       8.265       6.558       4.911       3.476       2.574       1.882       1.249      0.6275      6.2129E-03
   4    9.985       8.164       6.295       4.345       2.460       2.005       1.610       1.127      0.5808      5.7528E-03
   5    9.984       8.110       6.112       3.715      1.4778E-02   1.374       1.426       1.068      0.5627      5.5768E-03
   6    9.985       8.181       6.327       4.389       2.509       2.053       1.651       1.157      0.5965      5.9089E-03
   7    9.986       8.302       6.627       5.004       3.580       2.675       1.969       1.312      0.6604      6.5391E-03
   8    9.987       8.414       6.875       5.420       4.132       3.100       2.237       1.462      0.7267      7.1932E-03
   9    9.988       8.493       7.039       5.668       4.429       3.355       2.417       1.571      0.7774      7.6944E-03
  10    9.988       8.533       7.118       5.783       4.562       3.475       2.506       1.627      0.8042      7.9596E-03

 HEAD WILL BE SAVED ON UNIT   51 AT END OF TIME STEP   79, STRESS PERIOD    3

 DRAWDOWN WILL BE SAVED ON UNIT   52 AT END OF TIME STEP   79, STRESS PERIOD    3
1
  VOLUMETRIC BUDGET FOR ENTIRE MODEL AT END OF TIME STEP   79, STRESS PERIOD   3
  ------------------------------------------------------------------------------

     CUMULATIVE VOLUMES      L**3       RATES FOR THIS TIME STEP      L**3/T
     ------------------                 ------------------------

           IN:                                      IN:
           ---                                      ---
             STORAGE =       30017.4023               STORAGE =       7.9575E-02
       CONSTANT HEAD =           0.0000         CONSTANT HEAD =           0.0000
               WELLS =           0.0000                 WELLS =           0.0000
     HEAD DEP BOUNDS =      111153.4844       HEAD DEP BOUNDS =         832.1529

            TOTAL IN =      141170.8906              TOTAL IN =         832.2325

          OUT:                                     OUT:
          ----                                     ----
             STORAGE =           0.0000               STORAGE =           0.0000
       CONSTANT HEAD =           0.0000         CONSTANT HEAD =           0.0000
               WELLS =       39500.0000                 WELLS =         500.0000
     HEAD DEP BOUNDS =      101671.2656       HEAD DEP BOUNDS =         332.2335

           TOTAL OUT =      141171.2656             TOTAL OUT =         832.2335

            IN - OUT =          -0.3750              IN - OUT =      -9.7656E-04

 PERCENT DISCREPANCY =          -0.00     PERCENT DISCREPANCY =          -0.00






         TIME SUMMARY AT END OF TIME STEP   79 IN STRESS PERIOD    3
                    SECONDS     MINUTES      HOURS       DAYS        YEARS
                    -----------------------------------------------------------
   TIME STEP LENGTH  86400.      1440.0      24.000      1.0000     2.73785E-03
 STRESS PERIOD TIME 6.82560E+06 1.13760E+05  1896.0      79.000     0.21629    
         TOTAL TIME 1.55520E+07 2.59200E+05  4320.0      180.00     0.49281    
1

 SOLVING FOR HEAD 

 OUTPUT CONTROL FOR STRESS PERIOD    3   TIME STEP   80
    SAVE HEAD FOR ALL LAYERS
    SAVE DRAWDOWN FOR ALL LAYERS
    SAVE BUDGET
    PRINT HEAD FOR ALL LAYERS
    PRINT BUDGET
 UBDSV1 SAVING "         STORAGE" ON UNIT  53 AT TIME STEP 80, STRESS PERIOD   3
 UBDSV2 SAVING "   CONSTANT HEAD" ON UNIT  53 AT TIME STEP 80, STRESS PERIOD   3
 UBDSV1 SAVING "FLOW RIGHT FACE " ON UNIT  53 AT TIME STEP 80, STRESS PERIOD   3
 UBDSV1 SAVING "FLOW FRONT FACE " ON UNIT  53 AT TIME STEP 80, STRESS PERIOD   3
1
              HEAD IN LAYER   1 AT END OF TIME STEP  80 IN STRESS PERIOD    3
  ---------------------------------------------------------------------------

            1           2           3           4           5           6           7           8           9          10
 ........................................................................................................................
   1    9.987       8.401       6.864       5.431       4.164       3.101       2.206       1.422      0.7011      6.9389E-03
   2    9.986       8.353       6.760       5.266       3.959       2.932       2.095       1.360      0.6739      6.6700E-03
   3    9.986       8.265       6.558       4.911       3.476       2.574       1.882       1.249      0.6275      6.2128E-03
   4    9.985       8.164       6.295       4.345       2.460       2.005       1.610       1.127      0.5807      5.7528E-03
   5    9.984       8.110       6.112       3.715      1.4753E-02   1.374       1.426       1.068      0.5627      5.5767E-03
   6    9.985       8.181       6.327       4.389       2.509       2.053       1.651       1.157      0.5965      5.9088E-03
   7    9.986       8.302       6.627       5.004       3.580       2.675       1.969       1.312      0.6604      6.5390E-03
   8    9.987       8.414       6.875       5.420       4.132       3.100       2.237       1.462      0.7267      7.1931E-03
   9    9.988       8.493       7.038       5.668       4.429       3.355       2.417       1.571      0.7774      7.6943E-03
  10    9.988       8.533       7.118       5.783       4.562       3.475       2.506       1.627      0.8042      7.9595E-03

 HEAD WILL BE SAVED ON UNIT   51 AT END OF TIME STEP   80, STRESS PERIOD    3

 DRAWDOWN WILL BE SAVED ON UNIT   52 AT END OF TIME STEP   80, STRESS PERIOD    3
1
  VOLUMETRIC BUDGET FOR ENTIRE MODEL AT END OF TIME STEP   80, STRESS PERIOD   3
  ------------------------------------------------------------------------------

     CUMULATIVE VOLUMES      L**3       RATES FOR THIS TIME STEP      L**3/T
     ------------------                 ------------------------

           IN:                                      IN:
           ---                                      ---
             STORAGE =       30017.4727               STORAGE =       7.0968E-02
       CONSTANT HEAD =           0.0000         CONSTANT HEAD =           0.0000
               WELLS =           0.0000                 WELLS =           0.0000
     HEAD DEP BOUNDS =      111985.6406       HEAD DEP BOUNDS =         832.1572

            TOTAL IN =      142003.1094              TOTAL IN =         832.2281

          OUT:                                     OUT:
          ----                                     ----
             STORAGE =           0.0000               STORAGE =           0.0000
       CONSTANT HEAD =           0.0000         CONSTANT HEAD =           0.0000
               WELLS =       40000.0000                 WELLS =         500.0000
     HEAD DEP BOUNDS =      102003.4922       HEAD DEP BOUNDS =         332.2292

           TOTAL OUT =      142003.5000             TOTAL OUT =         832.2292

            IN - OUT =          -0.3906              IN - OUT =      -1.0376E-03

 PERCENT DISCREPANCY =          -0.00     PERCENT DISCREPANCY =          -0.00






         TIME SUMMARY AT END OF TIME STEP   80 IN STRESS PERIOD    3
                    SECONDS     MINUTES      HOURS       DAYS        YEARS
                    -----------------------------------------------------------
   TIME STEP LENGTH  86400.      1440.0      24.000      1.0000     2.73785E-03
 STRESS PERIOD TIME 6.91200E+06 1.15200E+05  1920.0      80.000     0.21903    
         TOTAL TIME 1.56384E+07 2.60640E+05  4344.0      181.00     0.49555    
1

 SOLVING FOR HEAD 

 OUTPUT CONTROL FOR STRESS PERIOD    3   TIME STEP   81
    SAVE HEAD FOR ALL LAYERS
    SAVE DRAWDOWN FOR ALL LAYERS
    SAVE BUDGET
    PRINT HEAD FOR ALL LAYERS
    PRINT BUDGET
 UBDSV1 SAVING "         STORAGE" ON UNIT  53 AT TIME STEP 81, STRESS PERIOD   3
 UBDSV2 SAVING "   CONSTANT HEAD" ON UNIT  53 AT TIME STEP 81, STRESS PERIOD   3
 UBDSV1 SAVING "FLOW RIGHT FACE " ON UNIT  53 AT TIME STEP 81, STRESS PERIOD   3
 UBDSV1 SAVING "FLOW FRONT FACE " ON UNIT  53 AT TIME STEP 81, STRESS PERIOD   3
1
              HEAD IN LAYER   1 AT END OF TIME STEP  81 IN STRESS PERIOD    3
  ---------------------------------------------------------------------------

            1           2           3           4           5           6           7           8           9          10
 ........................................................................................................................
   1    9.987       8.401       6.864       5.431       4.164       3.101       2.206       1.422      0.7011      6.9388E-03
   2    9.986       8.353       6.760       5.266       3.959       2.932       2.095       1.360      0.6739      6.6699E-03
   3    9.986       8.265       6.558       4.911       3.476       2.574       1.882       1.249      0.6275      6.2127E-03
   4    9.985       8.164       6.295       4.345       2.460       2.005       1.610       1.127      0.5807      5.7527E-03
   5    9.984       8.110       6.112       3.715      1.4731E-02   1.374       1.426       1.068      0.5627      5.5766E-03
   6    9.985       8.181       6.327       4.389       2.509       2.052       1.651       1.157      0.5965      5.9088E-03
   7    9.986       8.302       6.627       5.004       3.580       2.675       1.969       1.312      0.6604      6.5389E-03
   8    9.987       8.414       6.875       5.420       4.132       3.100       2.237       1.462      0.7266      7.1930E-03
   9    9.988       8.493       7.038       5.668       4.429       3.355       2.417       1.571      0.7774      7.6942E-03
  10    9.988       8.533       7.118       5.783       4.562       3.475       2.506       1.627      0.8042      7.9594E-03

 HEAD WILL BE SAVED ON UNIT   51 AT END OF TIME STEP   81, STRESS PERIOD    3

 DRAWDOWN WILL BE SAVED ON UNIT   52 AT END OF TIME STEP   81, STRESS PERIOD    3
1
  VOLUMETRIC BUDGET FOR ENTIRE MODEL AT END OF TIME STEP   81, STRESS PERIOD   3
  ------------------------------------------------------------------------------

     CUMULATIVE VOLUMES      L**3       RATES FOR THIS TIME STEP      L**3/T
     ------------------                 ------------------------

           IN:                                      IN:
           ---                                      ---
             STORAGE =       30017.5352               STORAGE =       6.3269E-02
       CONSTANT HEAD =           0.0000         CONSTANT HEAD =           0.0000
               WELLS =           0.0000                 WELLS =           0.0000
     HEAD DEP BOUNDS =      112817.8047       HEAD DEP BOUNDS =         832.1609

            TOTAL IN =      142835.3438              TOTAL IN =         832.2242

          OUT:                                     OUT:
          ----                                     ----
             STORAGE =           0.0000               STORAGE =           0.0000
       CONSTANT HEAD =           0.0000         CONSTANT HEAD =           0.0000
               WELLS =       40500.0000                 WELLS =         500.0000
     HEAD DEP BOUNDS =      102335.7188       HEAD DEP BOUNDS =         332.2254

           TOTAL OUT =      142835.7188             TOTAL OUT =         832.2253

            IN - OUT =          -0.3750              IN - OUT =      -1.0986E-03

 PERCENT DISCREPANCY =          -0.00     PERCENT DISCREPANCY =          -0.00






         TIME SUMMARY AT END OF TIME STEP   81 IN STRESS PERIOD    3
                    SECONDS     MINUTES      HOURS       DAYS        YEARS
                    -----------------------------------------------------------
   TIME STEP LENGTH  86400.      1440.0      24.000      1.0000     2.73785E-03
 STRESS PERIOD TIME 6.99840E+06 1.16640E+05  1944.0      81.000     0.22177    
         TOTAL TIME 1.57248E+07 2.62080E+05  4368.0      182.00     0.49829    
1

 SOLVING FOR HEAD 

 OUTPUT CONTROL FOR STRESS PERIOD    3   TIME STEP   82
    SAVE HEAD FOR ALL LAYERS
    SAVE DRAWDOWN FOR ALL LAYERS
    SAVE BUDGET
    PRINT HEAD FOR ALL LAYERS
    PRINT BUDGET
 UBDSV1 SAVING "         STORAGE" ON UNIT  53 AT TIME STEP 82, STRESS PERIOD   3
 UBDSV2 SAVING "   CONSTANT HEAD" ON UNIT  53 AT TIME STEP 82, STRESS PERIOD   3
 UBDSV1 SAVING "FLOW RIGHT FACE " ON UNIT  53 AT TIME STEP 82, STRESS PERIOD   3
 UBDSV1 SAVING "FLOW FRONT FACE " ON UNIT  53 AT TIME STEP 82, STRESS PERIOD   3
1
              HEAD IN LAYER   1 AT END OF TIME STEP  82 IN STRESS PERIOD    3
  ---------------------------------------------------------------------------

            1           2           3           4           5           6           7           8           9          10
 ........................................................................................................................
   1    9.987       8.401       6.864       5.431       4.164       3.101       2.206       1.422      0.7011      6.9387E-03
   2    9.986       8.353       6.760       5.266       3.959       2.932       2.095       1.360      0.6738      6.6699E-03
   3    9.986       8.265       6.558       4.911       3.476       2.574       1.882       1.249      0.6275      6.2127E-03
   4    9.985       8.164       6.295       4.345       2.460       2.005       1.610       1.127      0.5807      5.7526E-03
   5    9.984       8.110       6.112       3.715      1.4711E-02   1.374       1.426       1.068      0.5627      5.5766E-03
   6    9.985       8.181       6.327       4.389       2.509       2.052       1.651       1.157      0.5965      5.9087E-03
   7    9.986       8.302       6.627       5.004       3.580       2.675       1.969       1.312      0.6604      6.5388E-03
   8    9.987       8.414       6.875       5.420       4.132       3.100       2.237       1.462      0.7266      7.1929E-03
   9    9.988       8.493       7.038       5.668       4.429       3.355       2.417       1.571      0.7773      7.6942E-03
  10    9.988       8.533       7.118       5.783       4.562       3.475       2.506       1.627      0.8042      7.9593E-03

 HEAD WILL BE SAVED ON UNIT   51 AT END OF TIME STEP   82, STRESS PERIOD    3

 DRAWDOWN WILL BE SAVED ON UNIT   52 AT END OF TIME STEP   82, STRESS PERIOD    3
1
  VOLUMETRIC BUDGET FOR ENTIRE MODEL AT END OF TIME STEP   82, STRESS PERIOD   3
  ------------------------------------------------------------------------------

     CUMULATIVE VOLUMES      L**3       RATES FOR THIS TIME STEP      L**3/T
     ------------------                 ------------------------

           IN:                                      IN:
           ---                                      ---
             STORAGE =       30017.5918               STORAGE =       5.6660E-02
       CONSTANT HEAD =           0.0000         CONSTANT HEAD =           0.0000
               WELLS =           0.0000                 WELLS =           0.0000
     HEAD DEP BOUNDS =      113649.9688       HEAD DEP BOUNDS =         832.1642

            TOTAL IN =      143667.5625              TOTAL IN =         832.2209

          OUT:                                     OUT:
          ----                                     ----
             STORAGE =           0.0000               STORAGE =           0.0000
       CONSTANT HEAD =           0.0000         CONSTANT HEAD =           0.0000
               WELLS =       41000.0000                 WELLS =         500.0000
     HEAD DEP BOUNDS =      102667.9375       HEAD DEP BOUNDS =         332.2220

           TOTAL OUT =      143667.9375             TOTAL OUT =         832.2220

            IN - OUT =          -0.3750              IN - OUT =      -1.0986E-03

 PERCENT DISCREPANCY =          -0.00     PERCENT DISCREPANCY =          -0.00






         TIME SUMMARY AT END OF TIME STEP   82 IN STRESS PERIOD    3
                    SECONDS     MINUTES      HOURS       DAYS        YEARS
                    -----------------------------------------------------------
   TIME STEP LENGTH  86400.      1440.0      24.000      1.0000     2.73785E-03
 STRESS PERIOD TIME 7.08480E+06 1.18080E+05  1968.0      82.000     0.22450    
         TOTAL TIME 1.58112E+07 2.63520E+05  4392.0      183.00     0.50103    
1

 SOLVING FOR HEAD 

 OUTPUT CONTROL FOR STRESS PERIOD    3   TIME STEP   83
    SAVE HEAD FOR ALL LAYERS
    SAVE DRAWDOWN FOR ALL LAYERS
    SAVE BUDGET
    PRINT HEAD FOR ALL LAYERS
    PRINT BUDGET
 UBDSV1 SAVING "         STORAGE" ON UNIT  53 AT TIME STEP 83, STRESS PERIOD   3
 UBDSV2 SAVING "   CONSTANT HEAD" ON UNIT  53 AT TIME STEP 83, STRESS PERIOD   3
 UBDSV1 SAVING "FLOW RIGHT FACE " ON UNIT  53 AT TIME STEP 83, STRESS PERIOD   3
 UBDSV1 SAVING "FLOW FRONT FACE " ON UNIT  53 AT TIME STEP 83, STRESS PERIOD   3
1
              HEAD IN LAYER   1 AT END OF TIME STEP  83 IN STRESS PERIOD    3
  ---------------------------------------------------------------------------

            1           2           3           4           5           6           7           8           9          10
 ........................................................................................................................
   1    9.987       8.401       6.864       5.431       4.164       3.101       2.206       1.422      0.7011      6.9386E-03
   2    9.986       8.353       6.760       5.266       3.959       2.932       2.095       1.360      0.6738      6.6698E-03
   3    9.986       8.265       6.558       4.911       3.476       2.574       1.882       1.249      0.6275      6.2126E-03
   4    9.985       8.164       6.295       4.345       2.460       2.005       1.610       1.127      0.5807      5.7525E-03
   5    9.984       8.110       6.112       3.715      1.4694E-02   1.374       1.426       1.068      0.5627      5.5765E-03
   6    9.985       8.181       6.327       4.389       2.509       2.052       1.651       1.157      0.5965      5.9086E-03
   7    9.986       8.302       6.627       5.004       3.580       2.675       1.969       1.312      0.6604      6.5388E-03
   8    9.987       8.414       6.875       5.420       4.132       3.100       2.237       1.462      0.7266      7.1929E-03
   9    9.988       8.493       7.038       5.668       4.429       3.355       2.417       1.571      0.7773      7.6941E-03
  10    9.988       8.533       7.118       5.783       4.562       3.475       2.506       1.627      0.8042      7.9593E-03

 HEAD WILL BE SAVED ON UNIT   51 AT END OF TIME STEP   83, STRESS PERIOD    3

 DRAWDOWN WILL BE SAVED ON UNIT   52 AT END OF TIME STEP   83, STRESS PERIOD    3
1
  VOLUMETRIC BUDGET FOR ENTIRE MODEL AT END OF TIME STEP   83, STRESS PERIOD   3
  ------------------------------------------------------------------------------

     CUMULATIVE VOLUMES      L**3       RATES FOR THIS TIME STEP      L**3/T
     ------------------                 ------------------------

           IN:                                      IN:
           ---                                      ---
             STORAGE =       30017.6426               STORAGE =       5.0614E-02
       CONSTANT HEAD =           0.0000         CONSTANT HEAD =           0.0000
               WELLS =           0.0000                 WELLS =           0.0000
     HEAD DEP BOUNDS =      114482.1328       HEAD DEP BOUNDS =         832.1673

            TOTAL IN =      144499.7812              TOTAL IN =         832.2179

          OUT:                                     OUT:
          ----                                     ----
             STORAGE =           0.0000               STORAGE =           0.0000
       CONSTANT HEAD =           0.0000         CONSTANT HEAD =           0.0000
               WELLS =       41500.0000                 WELLS =         500.0000
     HEAD DEP BOUNDS =      103000.1562       HEAD DEP BOUNDS =         332.2189

           TOTAL OUT =      144500.1562             TOTAL OUT =         832.2189

            IN - OUT =          -0.3750              IN - OUT =      -1.0376E-03

 PERCENT DISCREPANCY =          -0.00     PERCENT DISCREPANCY =          -0.00






         TIME SUMMARY AT END OF TIME STEP   83 IN STRESS PERIOD    3
                    SECONDS     MINUTES      HOURS       DAYS        YEARS
                    -----------------------------------------------------------
   TIME STEP LENGTH  86400.      1440.0      24.000      1.0000     2.73785E-03
 STRESS PERIOD TIME 7.17120E+06 1.19520E+05  1992.0      83.000     0.22724    
         TOTAL TIME 1.58976E+07 2.64960E+05  4416.0      184.00     0.50376    
1

 SOLVING FOR HEAD 

 OUTPUT CONTROL FOR STRESS PERIOD    3   TIME STEP   84
    SAVE HEAD FOR ALL LAYERS
    SAVE DRAWDOWN FOR ALL LAYERS
    SAVE BUDGET
    PRINT HEAD FOR ALL LAYERS
    PRINT BUDGET
 UBDSV1 SAVING "         STORAGE" ON UNIT  53 AT TIME STEP 84, STRESS PERIOD   3
 UBDSV2 SAVING "   CONSTANT HEAD" ON UNIT  53 AT TIME STEP 84, STRESS PERIOD   3
 UBDSV1 SAVING "FLOW RIGHT FACE " ON UNIT  53 AT TIME STEP 84, STRESS PERIOD   3
 UBDSV1 SAVING "FLOW FRONT FACE " ON UNIT  53 AT TIME STEP 84, STRESS PERIOD   3
1
              HEAD IN LAYER   1 AT END OF TIME STEP  84 IN STRESS PERIOD    3
  ---------------------------------------------------------------------------

            1           2           3           4           5           6           7           8           9          10
 ........................................................................................................................
   1    9.987       8.401       6.864       5.431       4.164       3.101       2.206       1.422      0.7011      6.9386E-03
   2    9.986       8.353       6.760       5.266       3.959       2.932       2.095       1.360      0.6738      6.6697E-03
   3    9.986       8.265       6.558       4.911       3.476       2.574       1.882       1.249      0.6275      6.2126E-03
   4    9.985       8.164       6.295       4.345       2.460       2.005       1.610       1.127      0.5807      5.7525E-03
   5    9.984       8.110       6.112       3.715      1.4678E-02   1.374       1.426       1.068      0.5627      5.5764E-03
   6    9.985       8.181       6.327       4.389       2.509       2.052       1.651       1.157      0.5965      5.9086E-03
   7    9.986       8.302       6.627       5.004       3.580       2.675       1.969       1.312      0.6604      6.5387E-03
   8    9.987       8.414       6.875       5.420       4.132       3.100       2.237       1.462      0.7266      7.1928E-03
   9    9.988       8.493       7.038       5.668       4.429       3.355       2.417       1.571      0.7773      7.6941E-03
  10    9.988       8.533       7.118       5.783       4.562       3.475       2.506       1.627      0.8041      7.9592E-03

 HEAD WILL BE SAVED ON UNIT   51 AT END OF TIME STEP   84, STRESS PERIOD    3

 DRAWDOWN WILL BE SAVED ON UNIT   52 AT END OF TIME STEP   84, STRESS PERIOD    3
1
  VOLUMETRIC BUDGET FOR ENTIRE MODEL AT END OF TIME STEP   84, STRESS PERIOD   3
  ------------------------------------------------------------------------------

     CUMULATIVE VOLUMES      L**3       RATES FOR THIS TIME STEP      L**3/T
     ------------------                 ------------------------

           IN:                                      IN:
           ---                                      ---
             STORAGE =       30017.6875               STORAGE =       4.5184E-02
       CONSTANT HEAD =           0.0000         CONSTANT HEAD =           0.0000
               WELLS =           0.0000                 WELLS =           0.0000
     HEAD DEP BOUNDS =      115314.3047       HEAD DEP BOUNDS =         832.1700

            TOTAL IN =      145332.0000              TOTAL IN =         832.2151

          OUT:                                     OUT:
          ----                                     ----
             STORAGE =           0.0000               STORAGE =           0.0000
       CONSTANT HEAD =           0.0000         CONSTANT HEAD =           0.0000
               WELLS =       42000.0000                 WELLS =         500.0000
     HEAD DEP BOUNDS =      103332.3750       HEAD DEP BOUNDS =         332.2162

           TOTAL OUT =      145332.3750             TOTAL OUT =         832.2162

            IN - OUT =          -0.3750              IN - OUT =      -1.0986E-03

 PERCENT DISCREPANCY =          -0.00     PERCENT DISCREPANCY =          -0.00






         TIME SUMMARY AT END OF TIME STEP   84 IN STRESS PERIOD    3
                    SECONDS     MINUTES      HOURS       DAYS        YEARS
                    -----------------------------------------------------------
   TIME STEP LENGTH  86400.      1440.0      24.000      1.0000     2.73785E-03
 STRESS PERIOD TIME 7.25760E+06 1.20960E+05  2016.0      84.000     0.22998    
         TOTAL TIME 1.59840E+07 2.66400E+05  4440.0      185.00     0.50650    
1

 SOLVING FOR HEAD 

 OUTPUT CONTROL FOR STRESS PERIOD    3   TIME STEP   85
    SAVE HEAD FOR ALL LAYERS
    SAVE DRAWDOWN FOR ALL LAYERS
    SAVE BUDGET
    PRINT HEAD FOR ALL LAYERS
    PRINT BUDGET
 UBDSV1 SAVING "         STORAGE" ON UNIT  53 AT TIME STEP 85, STRESS PERIOD   3
 UBDSV2 SAVING "   CONSTANT HEAD" ON UNIT  53 AT TIME STEP 85, STRESS PERIOD   3
 UBDSV1 SAVING "FLOW RIGHT FACE " ON UNIT  53 AT TIME STEP 85, STRESS PERIOD   3
 UBDSV1 SAVING "FLOW FRONT FACE " ON UNIT  53 AT TIME STEP 85, STRESS PERIOD   3
1
              HEAD IN LAYER   1 AT END OF TIME STEP  85 IN STRESS PERIOD    3
  ---------------------------------------------------------------------------

            1           2           3           4           5           6           7           8           9          10
 ........................................................................................................................
   1    9.987       8.401       6.864       5.431       4.164       3.101       2.206       1.422      0.7011      6.9385E-03
   2    9.986       8.353       6.760       5.266       3.959       2.932       2.095       1.360      0.6738      6.6697E-03
   3    9.986       8.265       6.558       4.911       3.476       2.574       1.882       1.249      0.6275      6.2125E-03
   4    9.985       8.164       6.295       4.345       2.460       2.004       1.610       1.127      0.5807      5.7524E-03
   5    9.984       8.110       6.112       3.715      1.4664E-02   1.374       1.426       1.068      0.5627      5.5764E-03
   6    9.985       8.181       6.327       4.389       2.509       2.052       1.651       1.157      0.5965      5.9085E-03
   7    9.986       8.302       6.627       5.004       3.580       2.675       1.969       1.312      0.6604      6.5387E-03
   8    9.987       8.414       6.875       5.420       4.132       3.100       2.237       1.462      0.7266      7.1928E-03
   9    9.988       8.493       7.038       5.667       4.429       3.355       2.417       1.571      0.7773      7.6940E-03
  10    9.988       8.533       7.118       5.783       4.562       3.475       2.506       1.627      0.8041      7.9592E-03

 HEAD WILL BE SAVED ON UNIT   51 AT END OF TIME STEP   85, STRESS PERIOD    3

 DRAWDOWN WILL BE SAVED ON UNIT   52 AT END OF TIME STEP   85, STRESS PERIOD    3
1
  VOLUMETRIC BUDGET FOR ENTIRE MODEL AT END OF TIME STEP   85, STRESS PERIOD   3
  ------------------------------------------------------------------------------

     CUMULATIVE VOLUMES      L**3       RATES FOR THIS TIME STEP      L**3/T
     ------------------                 ------------------------

           IN:                                      IN:
           ---                                      ---
             STORAGE =       30017.7285               STORAGE =       4.0151E-02
       CONSTANT HEAD =           0.0000         CONSTANT HEAD =           0.0000
               WELLS =           0.0000                 WELLS =           0.0000
     HEAD DEP BOUNDS =      116146.4766       HEAD DEP BOUNDS =         832.1724

            TOTAL IN =      146164.2031              TOTAL IN =         832.2126

          OUT:                                     OUT:
          ----                                     ----
             STORAGE =           0.0000               STORAGE =           0.0000
       CONSTANT HEAD =           0.0000         CONSTANT HEAD =           0.0000
               WELLS =       42500.0000                 WELLS =         500.0000
     HEAD DEP BOUNDS =      103664.5859       HEAD DEP BOUNDS =         332.2138

           TOTAL OUT =      146164.5938             TOTAL OUT =         832.2138

            IN - OUT =          -0.3906              IN - OUT =      -1.2207E-03

 PERCENT DISCREPANCY =          -0.00     PERCENT DISCREPANCY =          -0.00






         TIME SUMMARY AT END OF TIME STEP   85 IN STRESS PERIOD    3
                    SECONDS     MINUTES      HOURS       DAYS        YEARS
                    -----------------------------------------------------------
   TIME STEP LENGTH  86400.      1440.0      24.000      1.0000     2.73785E-03
 STRESS PERIOD TIME 7.34400E+06 1.22400E+05  2040.0      85.000     0.23272    
         TOTAL TIME 1.60704E+07 2.67840E+05  4464.0      186.00     0.50924    
1

 SOLVING FOR HEAD 

 OUTPUT CONTROL FOR STRESS PERIOD    3   TIME STEP   86
    SAVE HEAD FOR ALL LAYERS
    SAVE DRAWDOWN FOR ALL LAYERS
    SAVE BUDGET
    PRINT HEAD FOR ALL LAYERS
    PRINT BUDGET
 UBDSV1 SAVING "         STORAGE" ON UNIT  53 AT TIME STEP 86, STRESS PERIOD   3
 UBDSV2 SAVING "   CONSTANT HEAD" ON UNIT  53 AT TIME STEP 86, STRESS PERIOD   3
 UBDSV1 SAVING "FLOW RIGHT FACE " ON UNIT  53 AT TIME STEP 86, STRESS PERIOD   3
 UBDSV1 SAVING "FLOW FRONT FACE " ON UNIT  53 AT TIME STEP 86, STRESS PERIOD   3
1
              HEAD IN LAYER   1 AT END OF TIME STEP  86 IN STRESS PERIOD    3
  ---------------------------------------------------------------------------

            1           2           3           4           5           6           7           8           9          10
 ........................................................................................................................
   1    9.987       8.401       6.864       5.431       4.164       3.101       2.206       1.422      0.7011      6.9385E-03
   2    9.986       8.353       6.760       5.265       3.959       2.932       2.095       1.360      0.6738      6.6697E-03
   3    9.986       8.265       6.558       4.911       3.476       2.574       1.882       1.249      0.6275      6.2125E-03
   4    9.985       8.164       6.295       4.345       2.460       2.004       1.610       1.127      0.5807      5.7524E-03
   5    9.984       8.110       6.112       3.715      1.4652E-02   1.374       1.426       1.068      0.5627      5.5763E-03
   6    9.985       8.181       6.327       4.389       2.509       2.052       1.651       1.157      0.5965      5.9085E-03
   7    9.986       8.302       6.627       5.004       3.580       2.675       1.969       1.312      0.6604      6.5386E-03
   8    9.987       8.414       6.875       5.420       4.132       3.100       2.237       1.462      0.7266      7.1927E-03
   9    9.988       8.493       7.038       5.667       4.429       3.355       2.417       1.571      0.7773      7.6940E-03
  10    9.988       8.533       7.118       5.783       4.562       3.475       2.506       1.627      0.8041      7.9591E-03

 HEAD WILL BE SAVED ON UNIT   51 AT END OF TIME STEP   86, STRESS PERIOD    3

 DRAWDOWN WILL BE SAVED ON UNIT   52 AT END OF TIME STEP   86, STRESS PERIOD    3
1
  VOLUMETRIC BUDGET FOR ENTIRE MODEL AT END OF TIME STEP   86, STRESS PERIOD   3
  ------------------------------------------------------------------------------

     CUMULATIVE VOLUMES      L**3       RATES FOR THIS TIME STEP      L**3/T
     ------------------                 ------------------------

           IN:                                      IN:
           ---                                      ---
             STORAGE =       30017.7637               STORAGE =       3.6060E-02
       CONSTANT HEAD =           0.0000         CONSTANT HEAD =           0.0000
               WELLS =           0.0000                 WELLS =           0.0000
     HEAD DEP BOUNDS =      116978.6484       HEAD DEP BOUNDS =         832.1745

            TOTAL IN =      146996.4062              TOTAL IN =         832.2106

          OUT:                                     OUT:
          ----                                     ----
             STORAGE =           0.0000               STORAGE =           0.0000
       CONSTANT HEAD =           0.0000         CONSTANT HEAD =           0.0000
               WELLS =       43000.0000                 WELLS =         500.0000
     HEAD DEP BOUNDS =      103996.7969       HEAD DEP BOUNDS =         332.2117

           TOTAL OUT =      146996.7969             TOTAL OUT =         832.2117

            IN - OUT =          -0.3906              IN - OUT =      -1.0986E-03

 PERCENT DISCREPANCY =          -0.00     PERCENT DISCREPANCY =          -0.00






         TIME SUMMARY AT END OF TIME STEP   86 IN STRESS PERIOD    3
                    SECONDS     MINUTES      HOURS       DAYS        YEARS
                    -----------------------------------------------------------
   TIME STEP LENGTH  86400.      1440.0      24.000      1.0000     2.73785E-03
 STRESS PERIOD TIME 7.43040E+06 1.23840E+05  2064.0      86.000     0.23546    
         TOTAL TIME 1.61568E+07 2.69280E+05  4488.0      187.00     0.51198    
1

 SOLVING FOR HEAD 

 OUTPUT CONTROL FOR STRESS PERIOD    3   TIME STEP   87
    SAVE HEAD FOR ALL LAYERS
    SAVE DRAWDOWN FOR ALL LAYERS
    SAVE BUDGET
    PRINT HEAD FOR ALL LAYERS
    PRINT BUDGET
 UBDSV1 SAVING "         STORAGE" ON UNIT  53 AT TIME STEP 87, STRESS PERIOD   3
 UBDSV2 SAVING "   CONSTANT HEAD" ON UNIT  53 AT TIME STEP 87, STRESS PERIOD   3
 UBDSV1 SAVING "FLOW RIGHT FACE " ON UNIT  53 AT TIME STEP 87, STRESS PERIOD   3
 UBDSV1 SAVING "FLOW FRONT FACE " ON UNIT  53 AT TIME STEP 87, STRESS PERIOD   3
1
              HEAD IN LAYER   1 AT END OF TIME STEP  87 IN STRESS PERIOD    3
  ---------------------------------------------------------------------------

            1           2           3           4           5           6           7           8           9          10
 ........................................................................................................................
   1    9.987       8.401       6.864       5.431       4.164       3.101       2.206       1.422      0.7011      6.9385E-03
   2    9.986       8.353       6.760       5.265       3.959       2.932       2.095       1.360      0.6738      6.6696E-03
   3    9.986       8.265       6.558       4.911       3.476       2.574       1.882       1.249      0.6275      6.2124E-03
   4    9.985       8.164       6.295       4.345       2.460       2.004       1.610       1.127      0.5807      5.7524E-03
   5    9.984       8.110       6.112       3.715      1.4641E-02   1.374       1.426       1.068      0.5627      5.5763E-03
   6    9.985       8.181       6.327       4.389       2.509       2.052       1.651       1.157      0.5965      5.9085E-03
   7    9.986       8.302       6.627       5.004       3.580       2.675       1.969       1.312      0.6604      6.5386E-03
   8    9.987       8.414       6.875       5.420       4.132       3.100       2.237       1.462      0.7266      7.1927E-03
   9    9.988       8.493       7.038       5.667       4.429       3.355       2.417       1.571      0.7773      7.6939E-03
  10    9.988       8.533       7.118       5.783       4.562       3.475       2.506       1.627      0.8041      7.9591E-03

 HEAD WILL BE SAVED ON UNIT   51 AT END OF TIME STEP   87, STRESS PERIOD    3

 DRAWDOWN WILL BE SAVED ON UNIT   52 AT END OF TIME STEP   87, STRESS PERIOD    3
1
  VOLUMETRIC BUDGET FOR ENTIRE MODEL AT END OF TIME STEP   87, STRESS PERIOD   3
  ------------------------------------------------------------------------------

     CUMULATIVE VOLUMES      L**3       RATES FOR THIS TIME STEP      L**3/T
     ------------------                 ------------------------

           IN:                                      IN:
           ---                                      ---
             STORAGE =       30017.7949               STORAGE =       3.2115E-02
       CONSTANT HEAD =           0.0000         CONSTANT HEAD =           0.0000
               WELLS =           0.0000                 WELLS =           0.0000
     HEAD DEP BOUNDS =      117810.8281       HEAD DEP BOUNDS =         832.1765

            TOTAL IN =      147828.6250              TOTAL IN =         832.2086

          OUT:                                     OUT:
          ----                                     ----
             STORAGE =           0.0000               STORAGE =           0.0000
       CONSTANT HEAD =           0.0000         CONSTANT HEAD =           0.0000
               WELLS =       43500.0000                 WELLS =         500.0000
     HEAD DEP BOUNDS =      104329.0078       HEAD DEP BOUNDS =         332.2097

           TOTAL OUT =      147829.0000             TOTAL OUT =         832.2097

            IN - OUT =          -0.3750              IN - OUT =      -1.1597E-03

 PERCENT DISCREPANCY =          -0.00     PERCENT DISCREPANCY =          -0.00






         TIME SUMMARY AT END OF TIME STEP   87 IN STRESS PERIOD    3
                    SECONDS     MINUTES      HOURS       DAYS        YEARS
                    -----------------------------------------------------------
   TIME STEP LENGTH  86400.      1440.0      24.000      1.0000     2.73785E-03
 STRESS PERIOD TIME 7.51680E+06 1.25280E+05  2088.0      87.000     0.23819    
         TOTAL TIME 1.62432E+07 2.70720E+05  4512.0      188.00     0.51472    
1

 SOLVING FOR HEAD 

 OUTPUT CONTROL FOR STRESS PERIOD    3   TIME STEP   88
    SAVE HEAD FOR ALL LAYERS
    SAVE DRAWDOWN FOR ALL LAYERS
    SAVE BUDGET
    PRINT HEAD FOR ALL LAYERS
    PRINT BUDGET
 UBDSV1 SAVING "         STORAGE" ON UNIT  53 AT TIME STEP 88, STRESS PERIOD   3
 UBDSV2 SAVING "   CONSTANT HEAD" ON UNIT  53 AT TIME STEP 88, STRESS PERIOD   3
 UBDSV1 SAVING "FLOW RIGHT FACE " ON UNIT  53 AT TIME STEP 88, STRESS PERIOD   3
 UBDSV1 SAVING "FLOW FRONT FACE " ON UNIT  53 AT TIME STEP 88, STRESS PERIOD   3
1
              HEAD IN LAYER   1 AT END OF TIME STEP  88 IN STRESS PERIOD    3
  ---------------------------------------------------------------------------

            1           2           3           4           5           6           7           8           9          10
 ........................................................................................................................
   1    9.987       8.401       6.864       5.431       4.164       3.101       2.206       1.422      0.7011      6.9384E-03
   2    9.986       8.353       6.760       5.265       3.959       2.932       2.095       1.360      0.6738      6.6696E-03
   3    9.986       8.265       6.558       4.911       3.476       2.574       1.882       1.249      0.6275      6.2124E-03
   4    9.985       8.164       6.295       4.345       2.460       2.004       1.610       1.127      0.5807      5.7523E-03
   5    9.984       8.110       6.112       3.715      1.4631E-02   1.374       1.426       1.068      0.5627      5.5763E-03
   6    9.985       8.181       6.327       4.389       2.509       2.052       1.651       1.157      0.5965      5.9084E-03
   7    9.986       8.302       6.627       5.004       3.580       2.675       1.969       1.312      0.6604      6.5386E-03
   8    9.987       8.414       6.875       5.420       4.132       3.100       2.237       1.462      0.7266      7.1927E-03
   9    9.988       8.493       7.038       5.667       4.429       3.355       2.417       1.571      0.7773      7.6939E-03
  10    9.988       8.533       7.118       5.783       4.562       3.475       2.506       1.627      0.8041      7.9591E-03

 HEAD WILL BE SAVED ON UNIT   51 AT END OF TIME STEP   88, STRESS PERIOD    3

 DRAWDOWN WILL BE SAVED ON UNIT   52 AT END OF TIME STEP   88, STRESS PERIOD    3
1
  VOLUMETRIC BUDGET FOR ENTIRE MODEL AT END OF TIME STEP   88, STRESS PERIOD   3
  ------------------------------------------------------------------------------

     CUMULATIVE VOLUMES      L**3       RATES FOR THIS TIME STEP      L**3/T
     ------------------                 ------------------------

           IN:                                      IN:
           ---                                      ---
             STORAGE =       30017.8242               STORAGE =       2.8599E-02
       CONSTANT HEAD =           0.0000         CONSTANT HEAD =           0.0000
               WELLS =           0.0000                 WELLS =           0.0000
     HEAD DEP BOUNDS =      118643.0078       HEAD DEP BOUNDS =         832.1782

            TOTAL IN =      148660.8281              TOTAL IN =         832.2068

          OUT:                                     OUT:
          ----                                     ----
             STORAGE =           0.0000               STORAGE =           0.0000
       CONSTANT HEAD =           0.0000         CONSTANT HEAD =           0.0000
               WELLS =       44000.0000                 WELLS =         500.0000
     HEAD DEP BOUNDS =      104661.2188       HEAD DEP BOUNDS =         332.2080

           TOTAL OUT =      148661.2188             TOTAL OUT =         832.2080

            IN - OUT =          -0.3906              IN - OUT =      -1.2207E-03

 PERCENT DISCREPANCY =          -0.00     PERCENT DISCREPANCY =          -0.00






         TIME SUMMARY AT END OF TIME STEP   88 IN STRESS PERIOD    3
                    SECONDS     MINUTES      HOURS       DAYS        YEARS
                    -----------------------------------------------------------
   TIME STEP LENGTH  86400.      1440.0      24.000      1.0000     2.73785E-03
 STRESS PERIOD TIME 7.60320E+06 1.26720E+05  2112.0      88.000     0.24093    
         TOTAL TIME 1.63296E+07 2.72160E+05  4536.0      189.00     0.51745    
1

 SOLVING FOR HEAD 

 OUTPUT CONTROL FOR STRESS PERIOD    3   TIME STEP   89
    SAVE HEAD FOR ALL LAYERS
    SAVE DRAWDOWN FOR ALL LAYERS
    SAVE BUDGET
    PRINT HEAD FOR ALL LAYERS
    PRINT BUDGET
 UBDSV1 SAVING "         STORAGE" ON UNIT  53 AT TIME STEP 89, STRESS PERIOD   3
 UBDSV2 SAVING "   CONSTANT HEAD" ON UNIT  53 AT TIME STEP 89, STRESS PERIOD   3
 UBDSV1 SAVING "FLOW RIGHT FACE " ON UNIT  53 AT TIME STEP 89, STRESS PERIOD   3
 UBDSV1 SAVING "FLOW FRONT FACE " ON UNIT  53 AT TIME STEP 89, STRESS PERIOD   3
1
              HEAD IN LAYER   1 AT END OF TIME STEP  89 IN STRESS PERIOD    3
  ---------------------------------------------------------------------------

            1           2           3           4           5           6           7           8           9          10
 ........................................................................................................................
   1    9.987       8.401       6.864       5.431       4.164       3.101       2.206       1.422      0.7010      6.9384E-03
   2    9.986       8.353       6.760       5.265       3.959       2.932       2.095       1.360      0.6738      6.6696E-03
   3    9.986       8.265       6.558       4.911       3.476       2.574       1.882       1.249      0.6275      6.2124E-03
   4    9.985       8.164       6.295       4.345       2.460       2.004       1.610       1.127      0.5807      5.7523E-03
   5    9.984       8.110       6.112       3.715      1.4622E-02   1.374       1.426       1.068      0.5627      5.5762E-03
   6    9.985       8.181       6.327       4.389       2.509       2.052       1.651       1.157      0.5964      5.9084E-03
   7    9.986       8.302       6.627       5.004       3.580       2.675       1.969       1.312      0.6604      6.5385E-03
   8    9.987       8.414       6.875       5.420       4.132       3.100       2.237       1.462      0.7266      7.1926E-03
   9    9.988       8.493       7.038       5.667       4.429       3.355       2.417       1.571      0.7773      7.6939E-03
  10    9.988       8.533       7.118       5.783       4.562       3.475       2.506       1.627      0.8041      7.9590E-03

 HEAD WILL BE SAVED ON UNIT   51 AT END OF TIME STEP   89, STRESS PERIOD    3

 DRAWDOWN WILL BE SAVED ON UNIT   52 AT END OF TIME STEP   89, STRESS PERIOD    3
1
  VOLUMETRIC BUDGET FOR ENTIRE MODEL AT END OF TIME STEP   89, STRESS PERIOD   3
  ------------------------------------------------------------------------------

     CUMULATIVE VOLUMES      L**3       RATES FOR THIS TIME STEP      L**3/T
     ------------------                 ------------------------

           IN:                                      IN:
           ---                                      ---
             STORAGE =       30017.8496               STORAGE =       2.5601E-02
       CONSTANT HEAD =           0.0000         CONSTANT HEAD =           0.0000
               WELLS =           0.0000                 WELLS =           0.0000
     HEAD DEP BOUNDS =      119475.1875       HEAD DEP BOUNDS =         832.1797

            TOTAL IN =      149493.0312              TOTAL IN =         832.2053

          OUT:                                     OUT:
          ----                                     ----
             STORAGE =           0.0000               STORAGE =           0.0000
       CONSTANT HEAD =           0.0000         CONSTANT HEAD =           0.0000
               WELLS =       44500.0000                 WELLS =         500.0000
     HEAD DEP BOUNDS =      104993.4219       HEAD DEP BOUNDS =         332.2065

           TOTAL OUT =      149493.4219             TOTAL OUT =         832.2065

            IN - OUT =          -0.3906              IN - OUT =      -1.2207E-03

 PERCENT DISCREPANCY =          -0.00     PERCENT DISCREPANCY =          -0.00






         TIME SUMMARY AT END OF TIME STEP   89 IN STRESS PERIOD    3
                    SECONDS     MINUTES      HOURS       DAYS        YEARS
                    -----------------------------------------------------------
   TIME STEP LENGTH  86400.      1440.0      24.000      1.0000     2.73785E-03
 STRESS PERIOD TIME 7.68960E+06 1.28160E+05  2136.0      89.000     0.24367    
         TOTAL TIME 1.64160E+07 2.73600E+05  4560.0      190.00     0.52019    
1

 SOLVING FOR HEAD 

 OUTPUT CONTROL FOR STRESS PERIOD    3   TIME STEP   90
    SAVE HEAD FOR ALL LAYERS
    SAVE DRAWDOWN FOR ALL LAYERS
    SAVE BUDGET
    PRINT HEAD FOR ALL LAYERS
    PRINT BUDGET
 UBDSV1 SAVING "         STORAGE" ON UNIT  53 AT TIME STEP 90, STRESS PERIOD   3
 UBDSV2 SAVING "   CONSTANT HEAD" ON UNIT  53 AT TIME STEP 90, STRESS PERIOD   3
 UBDSV1 SAVING "FLOW RIGHT FACE " ON UNIT  53 AT TIME STEP 90, STRESS PERIOD   3
 UBDSV1 SAVING "FLOW FRONT FACE " ON UNIT  53 AT TIME STEP 90, STRESS PERIOD   3
1
              HEAD IN LAYER   1 AT END OF TIME STEP  90 IN STRESS PERIOD    3
  ---------------------------------------------------------------------------

            1           2           3           4           5           6           7           8           9          10
 ........................................................................................................................
   1    9.987       8.401       6.864       5.431       4.164       3.101       2.206       1.422      0.7010      6.9384E-03
   2    9.986       8.353       6.760       5.265       3.959       2.932       2.095       1.360      0.6738      6.6695E-03
   3    9.986       8.265       6.558       4.911       3.476       2.574       1.882       1.249      0.6274      6.2123E-03
   4    9.985       8.164       6.295       4.345       2.460       2.004       1.610       1.127      0.5807      5.7523E-03
   5    9.984       8.110       6.112       3.715      1.4614E-02   1.374       1.426       1.068      0.5627      5.5762E-03
   6    9.985       8.181       6.327       4.389       2.509       2.052       1.651       1.157      0.5964      5.9084E-03
   7    9.986       8.302       6.627       5.004       3.580       2.675       1.969       1.312      0.6604      6.5385E-03
   8    9.987       8.414       6.875       5.420       4.132       3.100       2.237       1.462      0.7266      7.1926E-03
   9    9.988       8.493       7.038       5.667       4.429       3.355       2.417       1.571      0.7773      7.6938E-03
  10    9.988       8.533       7.118       5.783       4.562       3.475       2.506       1.627      0.8041      7.9590E-03

 HEAD WILL BE SAVED ON UNIT   51 AT END OF TIME STEP   90, STRESS PERIOD    3

 DRAWDOWN WILL BE SAVED ON UNIT   52 AT END OF TIME STEP   90, STRESS PERIOD    3
1
  VOLUMETRIC BUDGET FOR ENTIRE MODEL AT END OF TIME STEP   90, STRESS PERIOD   3
  ------------------------------------------------------------------------------

     CUMULATIVE VOLUMES      L**3       RATES FOR THIS TIME STEP      L**3/T
     ------------------                 ------------------------

           IN:                                      IN:
           ---                                      ---
             STORAGE =       30017.8730               STORAGE =       2.2793E-02
       CONSTANT HEAD =           0.0000         CONSTANT HEAD =           0.0000
               WELLS =           0.0000                 WELLS =           0.0000
     HEAD DEP BOUNDS =      120307.3672       HEAD DEP BOUNDS =         832.1810

            TOTAL IN =      150325.2344              TOTAL IN =         832.2038

          OUT:                                     OUT:
          ----                                     ----
             STORAGE =           0.0000               STORAGE =           0.0000
       CONSTANT HEAD =           0.0000         CONSTANT HEAD =           0.0000
               WELLS =       45000.0000                 WELLS =         500.0000
     HEAD DEP BOUNDS =      105325.6250       HEAD DEP BOUNDS =         332.2051

           TOTAL OUT =      150325.6250             TOTAL OUT =         832.2051

            IN - OUT =          -0.3906              IN - OUT =      -1.2817E-03

 PERCENT DISCREPANCY =          -0.00     PERCENT DISCREPANCY =          -0.00






         TIME SUMMARY AT END OF TIME STEP   90 IN STRESS PERIOD    3
                    SECONDS     MINUTES      HOURS       DAYS        YEARS
                    -----------------------------------------------------------
   TIME STEP LENGTH  86400.      1440.0      24.000      1.0000     2.73785E-03
 STRESS PERIOD TIME 7.77600E+06 1.29600E+05  2160.0      90.000     0.24641    
         TOTAL TIME 1.65024E+07 2.75040E+05  4584.0      191.00     0.52293    
1

 SOLVING FOR HEAD 

 OUTPUT CONTROL FOR STRESS PERIOD    3   TIME STEP   91
    SAVE HEAD FOR ALL LAYERS
    SAVE DRAWDOWN FOR ALL LAYERS
    SAVE BUDGET
    PRINT HEAD FOR ALL LAYERS
    PRINT BUDGET
 UBDSV1 SAVING "         STORAGE" ON UNIT  53 AT TIME STEP 91, STRESS PERIOD   3
 UBDSV2 SAVING "   CONSTANT HEAD" ON UNIT  53 AT TIME STEP 91, STRESS PERIOD   3
 UBDSV1 SAVING "FLOW RIGHT FACE " ON UNIT  53 AT TIME STEP 91, STRESS PERIOD   3
 UBDSV1 SAVING "FLOW FRONT FACE " ON UNIT  53 AT TIME STEP 91, STRESS PERIOD   3
1
              HEAD IN LAYER   1 AT END OF TIME STEP  91 IN STRESS PERIOD    3
  ---------------------------------------------------------------------------

            1           2           3           4           5           6           7           8           9          10
 ........................................................................................................................
   1    9.987       8.401       6.864       5.431       4.164       3.101       2.206       1.422      0.7010      6.9383E-03
   2    9.986       8.353       6.760       5.265       3.959       2.932       2.095       1.360      0.6738      6.6695E-03
   3    9.986       8.265       6.558       4.911       3.476       2.574       1.882       1.249      0.6274      6.2123E-03
   4    9.985       8.164       6.295       4.345       2.460       2.004       1.610       1.127      0.5807      5.7522E-03
   5    9.984       8.110       6.112       3.715      1.4607E-02   1.374       1.426       1.068      0.5627      5.5762E-03
   6    9.985       8.181       6.327       4.389       2.509       2.052       1.651       1.157      0.5964      5.9083E-03
   7    9.986       8.302       6.627       5.004       3.580       2.675       1.969       1.312      0.6604      6.5385E-03
   8    9.987       8.414       6.875       5.420       4.132       3.100       2.237       1.462      0.7266      7.1926E-03
   9    9.988       8.493       7.038       5.667       4.429       3.355       2.417       1.571      0.7773      7.6938E-03
  10    9.988       8.533       7.118       5.783       4.562       3.475       2.506       1.627      0.8041      7.9590E-03

 HEAD WILL BE SAVED ON UNIT   51 AT END OF TIME STEP   91, STRESS PERIOD    3

 DRAWDOWN WILL BE SAVED ON UNIT   52 AT END OF TIME STEP   91, STRESS PERIOD    3
1
  VOLUMETRIC BUDGET FOR ENTIRE MODEL AT END OF TIME STEP   91, STRESS PERIOD   3
  ------------------------------------------------------------------------------

     CUMULATIVE VOLUMES      L**3       RATES FOR THIS TIME STEP      L**3/T
     ------------------                 ------------------------

           IN:                                      IN:
           ---                                      ---
             STORAGE =       30017.8945               STORAGE =       2.0516E-02
       CONSTANT HEAD =           0.0000         CONSTANT HEAD =           0.0000
               WELLS =           0.0000                 WELLS =           0.0000
     HEAD DEP BOUNDS =      121139.5469       HEAD DEP BOUNDS =         832.1823

            TOTAL IN =      151157.4375              TOTAL IN =         832.2028

          OUT:                                     OUT:
          ----                                     ----
             STORAGE =           0.0000               STORAGE =           0.0000
       CONSTANT HEAD =           0.0000         CONSTANT HEAD =           0.0000
               WELLS =       45500.0000                 WELLS =         500.0000
     HEAD DEP BOUNDS =      105657.8281       HEAD DEP BOUNDS =         332.2039

           TOTAL OUT =      151157.8281             TOTAL OUT =         832.2039

            IN - OUT =          -0.3906              IN - OUT =      -1.0986E-03

 PERCENT DISCREPANCY =          -0.00     PERCENT DISCREPANCY =          -0.00






         TIME SUMMARY AT END OF TIME STEP   91 IN STRESS PERIOD    3
                    SECONDS     MINUTES      HOURS       DAYS        YEARS
                    -----------------------------------------------------------
   TIME STEP LENGTH  86400.      1440.0      24.000      1.0000     2.73785E-03
 STRESS PERIOD TIME 7.86240E+06 1.31040E+05  2184.0      91.000     0.24914    
         TOTAL TIME 1.65888E+07 2.76480E+05  4608.0      192.00     0.52567    
1

 SOLVING FOR HEAD 

 OUTPUT CONTROL FOR STRESS PERIOD    3   TIME STEP   92
    SAVE HEAD FOR ALL LAYERS
    SAVE DRAWDOWN FOR ALL LAYERS
    SAVE BUDGET
    PRINT HEAD FOR ALL LAYERS
    PRINT BUDGET
 UBDSV1 SAVING "         STORAGE" ON UNIT  53 AT TIME STEP 92, STRESS PERIOD   3
 UBDSV2 SAVING "   CONSTANT HEAD" ON UNIT  53 AT TIME STEP 92, STRESS PERIOD   3
 UBDSV1 SAVING "FLOW RIGHT FACE " ON UNIT  53 AT TIME STEP 92, STRESS PERIOD   3
 UBDSV1 SAVING "FLOW FRONT FACE " ON UNIT  53 AT TIME STEP 92, STRESS PERIOD   3
1
              HEAD IN LAYER   1 AT END OF TIME STEP  92 IN STRESS PERIOD    3
  ---------------------------------------------------------------------------

            1           2           3           4           5           6           7           8           9          10
 ........................................................................................................................
   1    9.987       8.401       6.864       5.431       4.164       3.101       2.206       1.422      0.7010      6.9383E-03
   2    9.986       8.353       6.760       5.265       3.959       2.932       2.095       1.360      0.6738      6.6695E-03
   3    9.986       8.265       6.558       4.911       3.476       2.574       1.882       1.249      0.6274      6.2123E-03
   4    9.985       8.164       6.295       4.345       2.460       2.004       1.610       1.127      0.5807      5.7522E-03
   5    9.984       8.110       6.112       3.715      1.4601E-02   1.374       1.426       1.068      0.5627      5.5762E-03
   6    9.985       8.181       6.327       4.389       2.509       2.052       1.651       1.157      0.5964      5.9083E-03
   7    9.986       8.302       6.627       5.004       3.580       2.675       1.969       1.312      0.6604      6.5385E-03
   8    9.987       8.414       6.875       5.420       4.132       3.100       2.237       1.462      0.7266      7.1926E-03
   9    9.988       8.493       7.038       5.667       4.429       3.355       2.417       1.571      0.7773      7.6938E-03
  10    9.988       8.533       7.118       5.783       4.562       3.475       2.506       1.627      0.8041      7.9590E-03

 HEAD WILL BE SAVED ON UNIT   51 AT END OF TIME STEP   92, STRESS PERIOD    3

 DRAWDOWN WILL BE SAVED ON UNIT   52 AT END OF TIME STEP   92, STRESS PERIOD    3
1
  VOLUMETRIC BUDGET FOR ENTIRE MODEL AT END OF TIME STEP   92, STRESS PERIOD   3
  ------------------------------------------------------------------------------

     CUMULATIVE VOLUMES      L**3       RATES FOR THIS TIME STEP      L**3/T
     ------------------                 ------------------------

           IN:                                      IN:
           ---                                      ---
             STORAGE =       30017.9121               STORAGE =       1.8102E-02
       CONSTANT HEAD =           0.0000         CONSTANT HEAD =           0.0000
               WELLS =           0.0000                 WELLS =           0.0000
     HEAD DEP BOUNDS =      121971.7266       HEAD DEP BOUNDS =         832.1833

            TOTAL IN =      151989.6406              TOTAL IN =         832.2015

          OUT:                                     OUT:
          ----                                     ----
             STORAGE =           0.0000               STORAGE =           0.0000
       CONSTANT HEAD =           0.0000         CONSTANT HEAD =           0.0000
               WELLS =       46000.0000                 WELLS =         500.0000
     HEAD DEP BOUNDS =      105990.0312       HEAD DEP BOUNDS =         332.2028

           TOTAL OUT =      151990.0312             TOTAL OUT =         832.2028

            IN - OUT =          -0.3906              IN - OUT =      -1.2817E-03

 PERCENT DISCREPANCY =          -0.00     PERCENT DISCREPANCY =          -0.00






         TIME SUMMARY AT END OF TIME STEP   92 IN STRESS PERIOD    3
                    SECONDS     MINUTES      HOURS       DAYS        YEARS
                    -----------------------------------------------------------
   TIME STEP LENGTH  86400.      1440.0      24.000      1.0000     2.73785E-03
 STRESS PERIOD TIME 7.94880E+06 1.32480E+05  2208.0      92.000     0.25188    
         TOTAL TIME 1.66752E+07 2.77920E+05  4632.0      193.00     0.52841    
1

 SOLVING FOR HEAD 

 OUTPUT CONTROL FOR STRESS PERIOD    3   TIME STEP   93
    SAVE HEAD FOR ALL LAYERS
    SAVE DRAWDOWN FOR ALL LAYERS
    SAVE BUDGET
    PRINT HEAD FOR ALL LAYERS
    PRINT BUDGET
 UBDSV1 SAVING "         STORAGE" ON UNIT  53 AT TIME STEP 93, STRESS PERIOD   3
 UBDSV2 SAVING "   CONSTANT HEAD" ON UNIT  53 AT TIME STEP 93, STRESS PERIOD   3
 UBDSV1 SAVING "FLOW RIGHT FACE " ON UNIT  53 AT TIME STEP 93, STRESS PERIOD   3
 UBDSV1 SAVING "FLOW FRONT FACE " ON UNIT  53 AT TIME STEP 93, STRESS PERIOD   3
1
              HEAD IN LAYER   1 AT END OF TIME STEP  93 IN STRESS PERIOD    3
  ---------------------------------------------------------------------------

            1           2           3           4           5           6           7           8           9          10
 ........................................................................................................................
   1    9.987       8.401       6.864       5.431       4.164       3.101       2.206       1.422      0.7010      6.9383E-03
   2    9.986       8.353       6.760       5.265       3.959       2.932       2.095       1.360      0.6738      6.6695E-03
   3    9.986       8.265       6.558       4.911       3.476       2.574       1.882       1.249      0.6274      6.2123E-03
   4    9.985       8.164       6.295       4.345       2.460       2.004       1.610       1.127      0.5807      5.7522E-03
   5    9.984       8.110       6.112       3.715      1.4595E-02   1.374       1.426       1.068      0.5627      5.5762E-03
   6    9.985       8.181       6.327       4.389       2.509       2.052       1.651       1.157      0.5964      5.9083E-03
   7    9.986       8.302       6.627       5.004       3.580       2.675       1.969       1.312      0.6604      6.5384E-03
   8    9.987       8.414       6.875       5.420       4.132       3.100       2.237       1.462      0.7266      7.1925E-03
   9    9.988       8.493       7.038       5.667       4.429       3.355       2.417       1.571      0.7773      7.6938E-03
  10    9.988       8.533       7.118       5.783       4.562       3.475       2.506       1.627      0.8041      7.9589E-03

 HEAD WILL BE SAVED ON UNIT   51 AT END OF TIME STEP   93, STRESS PERIOD    3

 DRAWDOWN WILL BE SAVED ON UNIT   52 AT END OF TIME STEP   93, STRESS PERIOD    3
1
  VOLUMETRIC BUDGET FOR ENTIRE MODEL AT END OF TIME STEP   93, STRESS PERIOD   3
  ------------------------------------------------------------------------------

     CUMULATIVE VOLUMES      L**3       RATES FOR THIS TIME STEP      L**3/T
     ------------------                 ------------------------

           IN:                                      IN:
           ---                                      ---
             STORAGE =       30017.9277               STORAGE =       1.6304E-02
       CONSTANT HEAD =           0.0000         CONSTANT HEAD =           0.0000
               WELLS =           0.0000                 WELLS =           0.0000
     HEAD DEP BOUNDS =      122803.9141       HEAD DEP BOUNDS =         832.1843

            TOTAL IN =      152821.8438              TOTAL IN =         832.2006

          OUT:                                     OUT:
          ----                                     ----
             STORAGE =           0.0000               STORAGE =           0.0000
       CONSTANT HEAD =           0.0000         CONSTANT HEAD =           0.0000
               WELLS =       46500.0000                 WELLS =         500.0000
     HEAD DEP BOUNDS =      106322.2344       HEAD DEP BOUNDS =         332.2018

           TOTAL OUT =      152822.2344             TOTAL OUT =         832.2018

            IN - OUT =          -0.3906              IN - OUT =      -1.2207E-03

 PERCENT DISCREPANCY =          -0.00     PERCENT DISCREPANCY =          -0.00






         TIME SUMMARY AT END OF TIME STEP   93 IN STRESS PERIOD    3
                    SECONDS     MINUTES      HOURS       DAYS        YEARS
                    -----------------------------------------------------------
   TIME STEP LENGTH  86400.      1440.0      24.000      1.0000     2.73785E-03
 STRESS PERIOD TIME 8.03520E+06 1.33920E+05  2232.0      93.000     0.25462    
         TOTAL TIME 1.67616E+07 2.79360E+05  4656.0      194.00     0.53114    
1

 SOLVING FOR HEAD 

 OUTPUT CONTROL FOR STRESS PERIOD    3   TIME STEP   94
    SAVE HEAD FOR ALL LAYERS
    SAVE DRAWDOWN FOR ALL LAYERS
    SAVE BUDGET
    PRINT HEAD FOR ALL LAYERS
    PRINT BUDGET
 UBDSV1 SAVING "         STORAGE" ON UNIT  53 AT TIME STEP 94, STRESS PERIOD   3
 UBDSV2 SAVING "   CONSTANT HEAD" ON UNIT  53 AT TIME STEP 94, STRESS PERIOD   3
 UBDSV1 SAVING "FLOW RIGHT FACE " ON UNIT  53 AT TIME STEP 94, STRESS PERIOD   3
 UBDSV1 SAVING "FLOW FRONT FACE " ON UNIT  53 AT TIME STEP 94, STRESS PERIOD   3
1
              HEAD IN LAYER   1 AT END OF TIME STEP  94 IN STRESS PERIOD    3
  ---------------------------------------------------------------------------

            1           2           3           4           5           6           7           8           9          10
 ........................................................................................................................
   1    9.987       8.401       6.864       5.431       4.164       3.101       2.206       1.422      0.7010      6.9383E-03
   2    9.986       8.353       6.760       5.265       3.959       2.932       2.095       1.360      0.6738      6.6694E-03
   3    9.986       8.265       6.558       4.911       3.476       2.574       1.882       1.249      0.6274      6.2122E-03
   4    9.985       8.164       6.295       4.345       2.460       2.004       1.610       1.127      0.5807      5.7522E-03
   5    9.984       8.110       6.112       3.715      1.4590E-02   1.374       1.426       1.068      0.5627      5.5761E-03
   6    9.985       8.181       6.327       4.389       2.509       2.052       1.651       1.157      0.5964      5.9083E-03
   7    9.986       8.302       6.627       5.004       3.580       2.675       1.969       1.312      0.6604      6.5384E-03
   8    9.987       8.414       6.875       5.420       4.132       3.100       2.237       1.462      0.7266      7.1925E-03
   9    9.988       8.493       7.038       5.667       4.429       3.355       2.417       1.571      0.7773      7.6937E-03
  10    9.988       8.533       7.118       5.783       4.562       3.475       2.506       1.627      0.8041      7.9589E-03

 HEAD WILL BE SAVED ON UNIT   51 AT END OF TIME STEP   94, STRESS PERIOD    3

 DRAWDOWN WILL BE SAVED ON UNIT   52 AT END OF TIME STEP   94, STRESS PERIOD    3
1
  VOLUMETRIC BUDGET FOR ENTIRE MODEL AT END OF TIME STEP   94, STRESS PERIOD   3
  ------------------------------------------------------------------------------

     CUMULATIVE VOLUMES      L**3       RATES FOR THIS TIME STEP      L**3/T
     ------------------                 ------------------------

           IN:                                      IN:
           ---                                      ---
             STORAGE =       30017.9414               STORAGE =       1.4596E-02
       CONSTANT HEAD =           0.0000         CONSTANT HEAD =           0.0000
               WELLS =           0.0000                 WELLS =           0.0000
     HEAD DEP BOUNDS =      123636.1016       HEAD DEP BOUNDS =         832.1851

            TOTAL IN =      153654.0469              TOTAL IN =         832.1997

          OUT:                                     OUT:
          ----                                     ----
             STORAGE =           0.0000               STORAGE =           0.0000
       CONSTANT HEAD =           0.0000         CONSTANT HEAD =           0.0000
               WELLS =       47000.0000                 WELLS =         500.0000
     HEAD DEP BOUNDS =      106654.4375       HEAD DEP BOUNDS =         332.2009

           TOTAL OUT =      153654.4375             TOTAL OUT =         832.2009

            IN - OUT =          -0.3906              IN - OUT =      -1.2207E-03

 PERCENT DISCREPANCY =          -0.00     PERCENT DISCREPANCY =          -0.00






         TIME SUMMARY AT END OF TIME STEP   94 IN STRESS PERIOD    3
                    SECONDS     MINUTES      HOURS       DAYS        YEARS
                    -----------------------------------------------------------
   TIME STEP LENGTH  86400.      1440.0      24.000      1.0000     2.73785E-03
 STRESS PERIOD TIME 8.12160E+06 1.35360E+05  2256.0      94.000     0.25736    
         TOTAL TIME 1.68480E+07 2.80800E+05  4680.0      195.00     0.53388    
1

 SOLVING FOR HEAD 

 OUTPUT CONTROL FOR STRESS PERIOD    3   TIME STEP   95
    SAVE HEAD FOR ALL LAYERS
    SAVE DRAWDOWN FOR ALL LAYERS
    SAVE BUDGET
    PRINT HEAD FOR ALL LAYERS
    PRINT BUDGET
 UBDSV1 SAVING "         STORAGE" ON UNIT  53 AT TIME STEP 95, STRESS PERIOD   3
 UBDSV2 SAVING "   CONSTANT HEAD" ON UNIT  53 AT TIME STEP 95, STRESS PERIOD   3
 UBDSV1 SAVING "FLOW RIGHT FACE " ON UNIT  53 AT TIME STEP 95, STRESS PERIOD   3
 UBDSV1 SAVING "FLOW FRONT FACE " ON UNIT  53 AT TIME STEP 95, STRESS PERIOD   3
1
              HEAD IN LAYER   1 AT END OF TIME STEP  95 IN STRESS PERIOD    3
  ---------------------------------------------------------------------------

            1           2           3           4           5           6           7           8           9          10
 ........................................................................................................................
   1    9.987       8.401       6.864       5.431       4.164       3.101       2.206       1.422      0.7010      6.9383E-03
   2    9.986       8.353       6.760       5.265       3.959       2.932       2.095       1.360      0.6738      6.6694E-03
   3    9.986       8.265       6.558       4.911       3.476       2.574       1.882       1.249      0.6274      6.2122E-03
   4    9.985       8.164       6.295       4.345       2.460       2.004       1.610       1.127      0.5807      5.7522E-03
   5    9.984       8.110       6.112       3.715      1.4585E-02   1.374       1.426       1.068      0.5627      5.5761E-03
   6    9.985       8.181       6.327       4.389       2.509       2.052       1.651       1.157      0.5964      5.9083E-03
   7    9.986       8.302       6.627       5.004       3.580       2.675       1.969       1.312      0.6604      6.5384E-03
   8    9.987       8.414       6.875       5.420       4.132       3.100       2.237       1.462      0.7266      7.1925E-03
   9    9.988       8.493       7.038       5.667       4.429       3.355       2.417       1.571      0.7773      7.6937E-03
  10    9.988       8.533       7.118       5.783       4.562       3.475       2.506       1.627      0.8041      7.9589E-03

 HEAD WILL BE SAVED ON UNIT   51 AT END OF TIME STEP   95, STRESS PERIOD    3

 DRAWDOWN WILL BE SAVED ON UNIT   52 AT END OF TIME STEP   95, STRESS PERIOD    3
1
  VOLUMETRIC BUDGET FOR ENTIRE MODEL AT END OF TIME STEP   95, STRESS PERIOD   3
  ------------------------------------------------------------------------------

     CUMULATIVE VOLUMES      L**3       RATES FOR THIS TIME STEP      L**3/T
     ------------------                 ------------------------

           IN:                                      IN:
           ---                                      ---
             STORAGE =       30017.9551               STORAGE =       1.3066E-02
       CONSTANT HEAD =           0.0000         CONSTANT HEAD =           0.0000
               WELLS =           0.0000                 WELLS =           0.0000
     HEAD DEP BOUNDS =      124468.2891       HEAD DEP BOUNDS =         832.1860

            TOTAL IN =      154486.2500              TOTAL IN =         832.1990

          OUT:                                     OUT:
          ----                                     ----
             STORAGE =           0.0000               STORAGE =           0.0000
       CONSTANT HEAD =           0.0000         CONSTANT HEAD =           0.0000
               WELLS =       47500.0000                 WELLS =         500.0000
     HEAD DEP BOUNDS =      106986.6406       HEAD DEP BOUNDS =         332.2001

           TOTAL OUT =      154486.6406             TOTAL OUT =         832.2001

            IN - OUT =          -0.3906              IN - OUT =      -1.0986E-03

 PERCENT DISCREPANCY =          -0.00     PERCENT DISCREPANCY =          -0.00






         TIME SUMMARY AT END OF TIME STEP   95 IN STRESS PERIOD    3
                    SECONDS     MINUTES      HOURS       DAYS        YEARS
                    -----------------------------------------------------------
   TIME STEP LENGTH  86400.      1440.0      24.000      1.0000     2.73785E-03
 STRESS PERIOD TIME 8.20800E+06 1.36800E+05  2280.0      95.000     0.26010    
         TOTAL TIME 1.69344E+07 2.82240E+05  4704.0      196.00     0.53662    
1

 SOLVING FOR HEAD 

 OUTPUT CONTROL FOR STRESS PERIOD    3   TIME STEP   96
    SAVE HEAD FOR ALL LAYERS
    SAVE DRAWDOWN FOR ALL LAYERS
    SAVE BUDGET
    PRINT HEAD FOR ALL LAYERS
    PRINT BUDGET
 UBDSV1 SAVING "         STORAGE" ON UNIT  53 AT TIME STEP 96, STRESS PERIOD   3
 UBDSV2 SAVING "   CONSTANT HEAD" ON UNIT  53 AT TIME STEP 96, STRESS PERIOD   3
 UBDSV1 SAVING "FLOW RIGHT FACE " ON UNIT  53 AT TIME STEP 96, STRESS PERIOD   3
 UBDSV1 SAVING "FLOW FRONT FACE " ON UNIT  53 AT TIME STEP 96, STRESS PERIOD   3
1
              HEAD IN LAYER   1 AT END OF TIME STEP  96 IN STRESS PERIOD    3
  ---------------------------------------------------------------------------

            1           2           3           4           5           6           7           8           9          10
 ........................................................................................................................
   1    9.987       8.401       6.864       5.431       4.164       3.101       2.206       1.422      0.7010      6.9383E-03
   2    9.986       8.353       6.760       5.265       3.959       2.932       2.095       1.360      0.6738      6.6694E-03
   3    9.986       8.265       6.558       4.911       3.476       2.574       1.882       1.249      0.6274      6.2122E-03
   4    9.985       8.164       6.295       4.345       2.460       2.004       1.610       1.127      0.5807      5.7522E-03
   5    9.984       8.110       6.112       3.715      1.4581E-02   1.374       1.426       1.068      0.5627      5.5761E-03
   6    9.985       8.181       6.327       4.389       2.509       2.052       1.651       1.157      0.5964      5.9082E-03
   7    9.986       8.302       6.627       5.004       3.580       2.675       1.969       1.312      0.6604      6.5384E-03
   8    9.987       8.414       6.875       5.420       4.132       3.100       2.237       1.462      0.7266      7.1925E-03
   9    9.988       8.493       7.038       5.667       4.429       3.355       2.417       1.571      0.7773      7.6937E-03
  10    9.988       8.533       7.118       5.782       4.562       3.475       2.506       1.627      0.8041      7.9589E-03

 HEAD WILL BE SAVED ON UNIT   51 AT END OF TIME STEP   96, STRESS PERIOD    3

 DRAWDOWN WILL BE SAVED ON UNIT   52 AT END OF TIME STEP   96, STRESS PERIOD    3
1
  VOLUMETRIC BUDGET FOR ENTIRE MODEL AT END OF TIME STEP   96, STRESS PERIOD   3
  ------------------------------------------------------------------------------

     CUMULATIVE VOLUMES      L**3       RATES FOR THIS TIME STEP      L**3/T
     ------------------                 ------------------------

           IN:                                      IN:
           ---                                      ---
             STORAGE =       30017.9668               STORAGE =       1.1456E-02
       CONSTANT HEAD =           0.0000         CONSTANT HEAD =           0.0000
               WELLS =           0.0000                 WELLS =           0.0000
     HEAD DEP BOUNDS =      125300.4766       HEAD DEP BOUNDS =         832.1866

            TOTAL IN =      155318.4375              TOTAL IN =         832.1981

          OUT:                                     OUT:
          ----                                     ----
             STORAGE =           0.0000               STORAGE =           0.0000
       CONSTANT HEAD =           0.0000         CONSTANT HEAD =           0.0000
               WELLS =       48000.0000                 WELLS =         500.0000
     HEAD DEP BOUNDS =      107318.8438       HEAD DEP BOUNDS =         332.1995

           TOTAL OUT =      155318.8438             TOTAL OUT =         832.1995

            IN - OUT =          -0.4062              IN - OUT =      -1.3428E-03

 PERCENT DISCREPANCY =          -0.00     PERCENT DISCREPANCY =          -0.00






         TIME SUMMARY AT END OF TIME STEP   96 IN STRESS PERIOD    3
                    SECONDS     MINUTES      HOURS       DAYS        YEARS
                    -----------------------------------------------------------
   TIME STEP LENGTH  86400.      1440.0      24.000      1.0000     2.73785E-03
 STRESS PERIOD TIME 8.29440E+06 1.38240E+05  2304.0      96.000     0.26283    
         TOTAL TIME 1.70208E+07 2.83680E+05  4728.0      197.00     0.53936    
1

 SOLVING FOR HEAD 

 OUTPUT CONTROL FOR STRESS PERIOD    3   TIME STEP   97
    SAVE HEAD FOR ALL LAYERS
    SAVE DRAWDOWN FOR ALL LAYERS
    SAVE BUDGET
    PRINT HEAD FOR ALL LAYERS
    PRINT BUDGET
 UBDSV1 SAVING "         STORAGE" ON UNIT  53 AT TIME STEP 97, STRESS PERIOD   3
 UBDSV2 SAVING "   CONSTANT HEAD" ON UNIT  53 AT TIME STEP 97, STRESS PERIOD   3
 UBDSV1 SAVING "FLOW RIGHT FACE " ON UNIT  53 AT TIME STEP 97, STRESS PERIOD   3
 UBDSV1 SAVING "FLOW FRONT FACE " ON UNIT  53 AT TIME STEP 97, STRESS PERIOD   3
1
              HEAD IN LAYER   1 AT END OF TIME STEP  97 IN STRESS PERIOD    3
  ---------------------------------------------------------------------------

            1           2           3           4           5           6           7           8           9          10
 ........................................................................................................................
   1    9.987       8.401       6.864       5.431       4.164       3.101       2.206       1.422      0.7010      6.9382E-03
   2    9.986       8.353       6.760       5.265       3.959       2.932       2.095       1.360      0.6738      6.6694E-03
   3    9.986       8.265       6.558       4.911       3.476       2.574       1.882       1.249      0.6274      6.2122E-03
   4    9.985       8.164       6.295       4.345       2.460       2.004       1.610       1.127      0.5807      5.7521E-03
   5    9.984       8.110       6.112       3.715      1.4578E-02   1.374       1.426       1.068      0.5627      5.5761E-03
   6    9.985       8.181       6.327       4.389       2.509       2.052       1.651       1.157      0.5964      5.9082E-03
   7    9.986       8.302       6.627       5.004       3.580       2.675       1.969       1.312      0.6604      6.5384E-03
   8    9.987       8.414       6.875       5.420       4.132       3.100       2.237       1.462      0.7266      7.1925E-03
   9    9.988       8.493       7.038       5.667       4.429       3.355       2.417       1.571      0.7773      7.6937E-03
  10    9.988       8.533       7.118       5.782       4.562       3.475       2.506       1.627      0.8041      7.9589E-03

 HEAD WILL BE SAVED ON UNIT   51 AT END OF TIME STEP   97, STRESS PERIOD    3

 DRAWDOWN WILL BE SAVED ON UNIT   52 AT END OF TIME STEP   97, STRESS PERIOD    3
1
  VOLUMETRIC BUDGET FOR ENTIRE MODEL AT END OF TIME STEP   97, STRESS PERIOD   3
  ------------------------------------------------------------------------------

     CUMULATIVE VOLUMES      L**3       RATES FOR THIS TIME STEP      L**3/T
     ------------------                 ------------------------

           IN:                                      IN:
           ---                                      ---
             STORAGE =       30017.9766               STORAGE =       1.0230E-02
       CONSTANT HEAD =           0.0000         CONSTANT HEAD =           0.0000
               WELLS =           0.0000                 WELLS =           0.0000
     HEAD DEP BOUNDS =      126132.6641       HEAD DEP BOUNDS =         832.1872

            TOTAL IN =      156150.6406              TOTAL IN =         832.1974

          OUT:                                     OUT:
          ----                                     ----
             STORAGE =           0.0000               STORAGE =           0.0000
       CONSTANT HEAD =           0.0000         CONSTANT HEAD =           0.0000
               WELLS =       48500.0000                 WELLS =         500.0000
     HEAD DEP BOUNDS =      107651.0391       HEAD DEP BOUNDS =         332.1988

           TOTAL OUT =      156151.0312             TOTAL OUT =         832.1989

            IN - OUT =          -0.3906              IN - OUT =      -1.4038E-03

 PERCENT DISCREPANCY =          -0.00     PERCENT DISCREPANCY =          -0.00






         TIME SUMMARY AT END OF TIME STEP   97 IN STRESS PERIOD    3
                    SECONDS     MINUTES      HOURS       DAYS        YEARS
                    -----------------------------------------------------------
   TIME STEP LENGTH  86400.      1440.0      24.000      1.0000     2.73785E-03
 STRESS PERIOD TIME 8.38080E+06 1.39680E+05  2328.0      97.000     0.26557    
         TOTAL TIME 1.71072E+07 2.85120E+05  4752.0      198.00     0.54209    
1

 SOLVING FOR HEAD 

 OUTPUT CONTROL FOR STRESS PERIOD    3   TIME STEP   98
    SAVE HEAD FOR ALL LAYERS
    SAVE DRAWDOWN FOR ALL LAYERS
    SAVE BUDGET
    PRINT HEAD FOR ALL LAYERS
    PRINT BUDGET
 UBDSV1 SAVING "         STORAGE" ON UNIT  53 AT TIME STEP 98, STRESS PERIOD   3
 UBDSV2 SAVING "   CONSTANT HEAD" ON UNIT  53 AT TIME STEP 98, STRESS PERIOD   3
 UBDSV1 SAVING "FLOW RIGHT FACE " ON UNIT  53 AT TIME STEP 98, STRESS PERIOD   3
 UBDSV1 SAVING "FLOW FRONT FACE " ON UNIT  53 AT TIME STEP 98, STRESS PERIOD   3
1
              HEAD IN LAYER   1 AT END OF TIME STEP  98 IN STRESS PERIOD    3
  ---------------------------------------------------------------------------

            1           2           3           4           5           6           7           8           9          10
 ........................................................................................................................
   1    9.987       8.401       6.864       5.431       4.164       3.101       2.206       1.422      0.7010      6.9382E-03
   2    9.986       8.353       6.760       5.265       3.959       2.932       2.095       1.360      0.6738      6.6694E-03
   3    9.986       8.265       6.558       4.911       3.476       2.574       1.882       1.249      0.6274      6.2122E-03
   4    9.985       8.164       6.295       4.345       2.460       2.004       1.610       1.127      0.5807      5.7521E-03
   5    9.984       8.110       6.112       3.715      1.4575E-02   1.374       1.426       1.068      0.5627      5.5761E-03
   6    9.985       8.181       6.327       4.389       2.509       2.052       1.651       1.157      0.5964      5.9082E-03
   7    9.986       8.302       6.627       5.004       3.580       2.675       1.969       1.312      0.6604      6.5384E-03
   8    9.987       8.414       6.875       5.420       4.132       3.100       2.237       1.462      0.7266      7.1925E-03
   9    9.988       8.493       7.038       5.667       4.429       3.355       2.417       1.571      0.7773      7.6937E-03
  10    9.988       8.533       7.118       5.782       4.562       3.475       2.506       1.627      0.8041      7.9589E-03

 HEAD WILL BE SAVED ON UNIT   51 AT END OF TIME STEP   98, STRESS PERIOD    3

 DRAWDOWN WILL BE SAVED ON UNIT   52 AT END OF TIME STEP   98, STRESS PERIOD    3
1
  VOLUMETRIC BUDGET FOR ENTIRE MODEL AT END OF TIME STEP   98, STRESS PERIOD   3
  ------------------------------------------------------------------------------

     CUMULATIVE VOLUMES      L**3       RATES FOR THIS TIME STEP      L**3/T
     ------------------                 ------------------------

           IN:                                      IN:
           ---                                      ---
             STORAGE =       30017.9863               STORAGE =       9.2529E-03
       CONSTANT HEAD =           0.0000         CONSTANT HEAD =           0.0000
               WELLS =           0.0000                 WELLS =           0.0000
     HEAD DEP BOUNDS =      126964.8516       HEAD DEP BOUNDS =         832.1877

            TOTAL IN =      156982.8438              TOTAL IN =         832.1970

          OUT:                                     OUT:
          ----                                     ----
             STORAGE =           0.0000               STORAGE =           0.0000
       CONSTANT HEAD =           0.0000         CONSTANT HEAD =           0.0000
               WELLS =       49000.0000                 WELLS =         500.0000
     HEAD DEP BOUNDS =      107983.2344       HEAD DEP BOUNDS =         332.1983

           TOTAL OUT =      156983.2344             TOTAL OUT =         832.1982

            IN - OUT =          -0.3906              IN - OUT =      -1.2207E-03

 PERCENT DISCREPANCY =          -0.00     PERCENT DISCREPANCY =          -0.00






         TIME SUMMARY AT END OF TIME STEP   98 IN STRESS PERIOD    3
                    SECONDS     MINUTES      HOURS       DAYS        YEARS
                    -----------------------------------------------------------
   TIME STEP LENGTH  86400.      1440.0      24.000      1.0000     2.73785E-03
 STRESS PERIOD TIME 8.46720E+06 1.41120E+05  2352.0      98.000     0.26831    
         TOTAL TIME 1.71936E+07 2.86560E+05  4776.0      199.00     0.54483    
1

 SOLVING FOR HEAD 

 OUTPUT CONTROL FOR STRESS PERIOD    3   TIME STEP   99
    SAVE HEAD FOR ALL LAYERS
    SAVE DRAWDOWN FOR ALL LAYERS
    SAVE BUDGET
    PRINT HEAD FOR ALL LAYERS
    PRINT BUDGET
 UBDSV1 SAVING "         STORAGE" ON UNIT  53 AT TIME STEP 99, STRESS PERIOD   3
 UBDSV2 SAVING "   CONSTANT HEAD" ON UNIT  53 AT TIME STEP 99, STRESS PERIOD   3
 UBDSV1 SAVING "FLOW RIGHT FACE " ON UNIT  53 AT TIME STEP 99, STRESS PERIOD   3
 UBDSV1 SAVING "FLOW FRONT FACE " ON UNIT  53 AT TIME STEP 99, STRESS PERIOD   3
1
              HEAD IN LAYER   1 AT END OF TIME STEP  99 IN STRESS PERIOD    3
  ---------------------------------------------------------------------------

            1           2           3           4           5           6           7           8           9          10
 ........................................................................................................................
   1    9.987       8.401       6.864       5.431       4.164       3.101       2.206       1.422      0.7010      6.9382E-03
   2    9.986       8.353       6.760       5.265       3.959       2.932       2.095       1.360      0.6738      6.6694E-03
   3    9.986       8.265       6.558       4.911       3.476       2.574       1.882       1.249      0.6274      6.2122E-03
   4    9.985       8.164       6.295       4.345       2.460       2.004       1.610       1.127      0.5807      5.7521E-03
   5    9.984       8.110       6.112       3.715      1.4572E-02   1.374       1.426       1.068      0.5627      5.5761E-03
   6    9.985       8.181       6.327       4.389       2.509       2.052       1.651       1.157      0.5964      5.9082E-03
   7    9.986       8.302       6.627       5.004       3.580       2.675       1.969       1.312      0.6604      6.5384E-03
   8    9.987       8.414       6.875       5.420       4.132       3.100       2.237       1.462      0.7266      7.1925E-03
   9    9.988       8.493       7.038       5.667       4.429       3.355       2.417       1.571      0.7773      7.6937E-03
  10    9.988       8.533       7.118       5.782       4.562       3.475       2.506       1.627      0.8041      7.9589E-03

 HEAD WILL BE SAVED ON UNIT   51 AT END OF TIME STEP   99, STRESS PERIOD    3

 DRAWDOWN WILL BE SAVED ON UNIT   52 AT END OF TIME STEP   99, STRESS PERIOD    3
1
  VOLUMETRIC BUDGET FOR ENTIRE MODEL AT END OF TIME STEP   99, STRESS PERIOD   3
  ------------------------------------------------------------------------------

     CUMULATIVE VOLUMES      L**3       RATES FOR THIS TIME STEP      L**3/T
     ------------------                 ------------------------

           IN:                                      IN:
           ---                                      ---
             STORAGE =       30017.9941               STORAGE =       8.2000E-03
       CONSTANT HEAD =           0.0000         CONSTANT HEAD =           0.0000
               WELLS =           0.0000                 WELLS =           0.0000
     HEAD DEP BOUNDS =      127797.0391       HEAD DEP BOUNDS =         832.1882

            TOTAL IN =      157815.0312              TOTAL IN =         832.1964

          OUT:                                     OUT:
          ----                                     ----
             STORAGE =           0.0000               STORAGE =           0.0000
       CONSTANT HEAD =           0.0000         CONSTANT HEAD =           0.0000
               WELLS =       49500.0000                 WELLS =         500.0000
     HEAD DEP BOUNDS =      108315.4297       HEAD DEP BOUNDS =         332.1978

           TOTAL OUT =      157815.4375             TOTAL OUT =         832.1978

            IN - OUT =          -0.4062              IN - OUT =      -1.3428E-03

 PERCENT DISCREPANCY =          -0.00     PERCENT DISCREPANCY =          -0.00






         TIME SUMMARY AT END OF TIME STEP   99 IN STRESS PERIOD    3
                    SECONDS     MINUTES      HOURS       DAYS        YEARS
                    -----------------------------------------------------------
   TIME STEP LENGTH  86400.      1440.0      24.000      1.0000     2.73785E-03
 STRESS PERIOD TIME 8.55360E+06 1.42560E+05  2376.0      99.000     0.27105    
         TOTAL TIME 1.72800E+07 2.88000E+05  4800.0      200.00     0.54757    
1

 SOLVING FOR HEAD 

 OUTPUT CONTROL FOR STRESS PERIOD    3   TIME STEP  100
    SAVE HEAD FOR ALL LAYERS
    SAVE DRAWDOWN FOR ALL LAYERS
    SAVE BUDGET
    PRINT HEAD FOR ALL LAYERS
    PRINT BUDGET
 UBDSV1 SAVING "         STORAGE" ON UNIT  53 AT TIME STEP100, STRESS PERIOD   3
 UBDSV2 SAVING "   CONSTANT HEAD" ON UNIT  53 AT TIME STEP100, STRESS PERIOD   3
 UBDSV1 SAVING "FLOW RIGHT FACE " ON UNIT  53 AT TIME STEP100, STRESS PERIOD   3
 UBDSV1 SAVING "FLOW FRONT FACE " ON UNIT  53 AT TIME STEP100, STRESS PERIOD   3
1
              HEAD IN LAYER   1 AT END OF TIME STEP 100 IN STRESS PERIOD    3
  ---------------------------------------------------------------------------

            1           2           3           4           5           6           7           8           9          10
 ........................................................................................................................
   1    9.987       8.401       6.864       5.431       4.164       3.101       2.206       1.422      0.7010      6.9382E-03
   2    9.986       8.353       6.760       5.265       3.959       2.932       2.095       1.360      0.6738      6.6694E-03
   3    9.986       8.265       6.558       4.911       3.476       2.574       1.882       1.249      0.6274      6.2122E-03
   4    9.985       8.164       6.295       4.345       2.460       2.004       1.610       1.127      0.5807      5.7521E-03
   5    9.984       8.110       6.112       3.715      1.4569E-02   1.374       1.426       1.068      0.5627      5.5761E-03
   6    9.985       8.181       6.327       4.389       2.509       2.052       1.651       1.157      0.5964      5.9082E-03
   7    9.986       8.302       6.627       5.004       3.580       2.675       1.969       1.312      0.6604      6.5384E-03
   8    9.987       8.414       6.875       5.420       4.132       3.100       2.237       1.462      0.7266      7.1924E-03
   9    9.988       8.493       7.038       5.667       4.429       3.355       2.417       1.571      0.7773      7.6937E-03
  10    9.988       8.533       7.118       5.782       4.562       3.475       2.506       1.627      0.8041      7.9588E-03

 HEAD WILL BE SAVED ON UNIT   51 AT END OF TIME STEP  100, STRESS PERIOD    3

 DRAWDOWN WILL BE SAVED ON UNIT   52 AT END OF TIME STEP  100, STRESS PERIOD    3
1
  VOLUMETRIC BUDGET FOR ENTIRE MODEL AT END OF TIME STEP  100, STRESS PERIOD   3
  ------------------------------------------------------------------------------

     CUMULATIVE VOLUMES      L**3       RATES FOR THIS TIME STEP      L**3/T
     ------------------                 ------------------------

           IN:                                      IN:
           ---                                      ---
             STORAGE =       30018.0020               STORAGE =       7.3490E-03
       CONSTANT HEAD =           0.0000         CONSTANT HEAD =           0.0000
               WELLS =           0.0000                 WELLS =           0.0000
     HEAD DEP BOUNDS =      128629.2266       HEAD DEP BOUNDS =         832.1887

            TOTAL IN =      158647.2344              TOTAL IN =         832.1960

          OUT:                                     OUT:
          ----                                     ----
             STORAGE =           0.0000               STORAGE =           0.0000
       CONSTANT HEAD =           0.0000         CONSTANT HEAD =           0.0000
               WELLS =       50000.0000                 WELLS =         500.0000
     HEAD DEP BOUNDS =      108647.6250       HEAD DEP BOUNDS =         332.1973

           TOTAL OUT =      158647.6250             TOTAL OUT =         832.1973

            IN - OUT =          -0.3906              IN - OUT =      -1.2817E-03

 PERCENT DISCREPANCY =          -0.00     PERCENT DISCREPANCY =          -0.00






         TIME SUMMARY AT END OF TIME STEP  100 IN STRESS PERIOD    3
                    SECONDS     MINUTES      HOURS       DAYS        YEARS
                    -----------------------------------------------------------
   TIME STEP LENGTH  86400.      1440.0      24.000      1.0000     2.73785E-03
 STRESS PERIOD TIME 8.64000E+06 1.44000E+05  2400.0      100.00     0.27379    
         TOTAL TIME 1.73664E+07 2.89440E+05  4824.0      201.00     0.55031    
1

 Run end date and time (yyyy/mm/dd hh:mm:ss): 2015/09/23 15:37:08
 Elapsed run time:  0.089 Seconds

